MODPATH_PATHLINE_FILE 6 0                                                       
 1   0.000000000000000E+00
END HEADER
         1     1    -1     2   0.182600000000000E+04   0.625000000000000E+03   0.637500000000000E+04   0.350000000000000E+02    1   15    3  1  0.5000000E+00   0.5000000E+00   0.1000000E+01     1
         1     1    -1     3   0.182600000000000E+04   0.625000000000000E+03   0.637500000000000E+04   0.350000000000000E+02    1   15    3  1  0.5000000E+00   0.5000000E+00   0.1000000E+01     2
         1     1    -1     3   0.223113975340413E+04   0.634082235944743E+03   0.625000000000000E+04   0.349754090000000E+02    1   16    3  1  0.5363289E+00   0.1000000E+01   0.9990000E+00     2
         1     1    -1     3   0.287856637532713E+04   0.644300312520281E+03   0.600000000000000E+04   0.349742241000000E+02    1   17    3  1  0.5772013E+00   0.1000000E+01   0.9990000E+00     2
         1     1    -1     3   0.340804946232764E+04   0.637402033045004E+03   0.575000000000000E+04   0.349719156000000E+02    1   18    3  1  0.5496081E+00   0.1000000E+01   0.9990000E+00     2
         1     1    -1     3   0.386759125151107E+04   0.640863273749098E+03   0.550000000000000E+04   0.349710632000000E+02    1   19    3  1  0.5634531E+00   0.1000000E+01   0.9990000E+00     2
         1     1    -1     3   0.424617463712329E+04   0.646694003500443E+03   0.525000000000000E+04   0.349689943000000E+02    1   20    3  1  0.5867760E+00   0.1000000E+01   0.9990000E+00     2
         1     1    -1     3   0.458562182865121E+04   0.656849522801640E+03   0.500000000000000E+04   0.349728784000000E+02    1   21    3  1  0.6273981E+00   0.1000000E+01   0.9990000E+00     2
         1     1    -1     3   0.485436284598407E+04   0.680525596484043E+03   0.475000000000000E+04   0.349697303000000E+02    1   22    3  1  0.7221024E+00   0.1000000E+01   0.9990000E+00     2
         1     1    -1     3   0.513186902369790E+04   0.720252026532353E+03   0.450000000000000E+04   0.349704725000000E+02    1   23    3  1  0.8810081E+00   0.1000000E+01   0.9990000E+00     2
         1     1    -1     3   0.520695072798151E+04   0.750000000000000E+03   0.442831106217034E+04   0.349736354000000E+02    1   23    4  1  0.0000000E+00   0.7132442E+00   0.9990000E+00     2
         1     1    -1     3   0.538969935872793E+04   0.846233992126933E+03   0.425000000000000E+04   0.349743852000000E+02    1   24    4  1  0.3849360E+00   0.1000000E+01   0.9990000E+00     2
         1     1    -1     3   0.559649797065888E+04   0.100000000000000E+04   0.408055400913542E+04   0.349760120000000E+02    1   24    5  1  0.0000000E+00   0.3222160E+00   0.9990000E+00     2
         1     1    -1     3   0.570514981369502E+04   0.110761504037708E+04   0.400000000000000E+04   0.349761070000000E+02    1   25    5  1  0.4304602E+00   0.1000000E+01   0.9990000E+00     2
         1     1    -1     3   0.586115371531596E+04   0.125000000000000E+04   0.389704476672870E+04   0.349702416000000E+02    1   25    6  1  0.0000000E+00   0.5881791E+00   0.9990000E+00     2
         1     1    -1     3   0.616103564634821E+04   0.150000000000000E+04   0.381005670654661E+04   0.349707991000000E+02    1   25    7  1  0.0000000E+00   0.2402268E+00   0.9990000E+00     2
         1     1    -1     3   0.645363235232091E+04   0.175000000000000E+04   0.377186877456343E+04   0.349706034000000E+02    1   25    8  1  0.0000000E+00   0.8747510E-01   0.9990000E+00     2
         1     1    -1     3   0.662441233122428E+04   0.188354190211720E+04   0.375000000000000E+04   0.349690361000000E+02    1   26    8  1  0.5341676E+00   0.1000000E+01   0.9990000E+00     2
         1     1    -1     3   0.677581109896766E+04   0.200000000000000E+04   0.373025237591840E+04   0.349684598000000E+02    1   26    9  1  0.0000000E+00   0.9210095E+00   0.9990000E+00     2
         1     1    -1     3   0.707655044811099E+04   0.225000000000000E+04   0.369018788451901E+04   0.349677051000000E+02    1   26   10  1  0.0000000E+00   0.7607515E+00   0.9990000E+00     2
         1     1    -1     3   0.753818698964191E+04   0.250000000000000E+04   0.362767353638639E+04   0.349654493500000E+02    1   26   11  1  0.0000000E+00   0.5106941E+00   0.9990000E+00     2
         1     1    -1     3   0.824585590050374E+04   0.275000000000000E+04   0.355890481535282E+04   0.349656372500000E+02    1   26   12  1  0.0000000E+00   0.2356193E+00   0.9990000E+00     2
         1     1    -1     3   0.872629932064909E+04   0.297258618536962E+04   0.350000000000000E+04   0.349655415900000E+02    1   27   12  1  0.8903447E+00   0.1000000E+01   0.9990000E+00     2
         1     1    -1     3   0.877837488006756E+04   0.300000000000000E+04   0.349360841622485E+04   0.349654242700000E+02    1   27   13  1  0.0000000E+00   0.9744337E+00   0.9990000E+00     2
         1     1    -1     3   0.923401404880073E+04   0.325000000000000E+04   0.342461208220674E+04   0.349654677500000E+02    1   27   14  1  0.0000000E+00   0.6984483E+00   0.9990000E+00     2
         1     1    -1     3   0.965243503146650E+04   0.350000000000000E+04   0.335208521291185E+04   0.349653847600000E+02    1   27   15  1  0.0000000E+00   0.4083409E+00   0.9990000E+00     2
         1     1    -1     3   0.102077526208300E+05   0.364299129037799E+04   0.325000000000000E+04   0.349652102900000E+02    1   28   15  1  0.5719652E+00   0.1000000E+01   0.9990000E+00     2
         1     1    -1     3   0.116067412418845E+05   0.366254957980400E+04   0.300000000000000E+04   0.349656895600000E+02    1   29   15  1  0.6501983E+00   0.1000000E+01   0.9990000E+00     2
         1     1    -1     3   0.130223682351653E+05   0.366178203894881E+04   0.275000000000000E+04   0.349650139450000E+02    1   30   15  1  0.6471282E+00   0.1000000E+01   0.9990000E+00     2
         1     1    -1     3   0.144472720090658E+05   0.365685576263856E+04   0.250000000000000E+04   0.349654124600000E+02    1   31   15  1  0.6274231E+00   0.1000000E+01   0.9990000E+00     2
         1     1    -1     3   0.158913225231280E+05   0.364750057043915E+04   0.225000000000000E+04   0.349655694900000E+02    1   32   15  1  0.5900023E+00   0.1000000E+01   0.9990000E+00     2
         1     1    -1     3   0.173822484984210E+05   0.363319957274859E+04   0.200000000000000E+04   0.349657109100000E+02    1   33   15  1  0.5327983E+00   0.1000000E+01   0.9990000E+00     2
         1     1    -1     3   0.188813220103210E+05   0.360710728467059E+04   0.175000000000000E+04   0.349656923200000E+02    1   34   15  1  0.4284291E+00   0.1000000E+01   0.9990000E+00     2
         1     1    -1     3   0.204300983290776E+05   0.358169665645980E+04   0.150000000000000E+04   0.349655878800000E+02    1   35   15  1  0.3267866E+00   0.1000000E+01   0.9990000E+00     2
         1     1    -1     3   0.220533434708532E+05   0.360536460971931E+04   0.125000000000000E+04   0.349652502700000E+02    1   36   15  1  0.4214584E+00   0.1000000E+01   0.9990000E+00     2
         1     1    -1     3   0.236929471967461E+05   0.362742197000093E+04   0.100000000000000E+04   0.349650649440000E+02    1   37   15  1  0.5096879E+00   0.1000000E+01   0.9990000E+00     2
         1     1    -1     3   0.252995339114034E+05   0.363708211699622E+04   0.750000000000000E+03   0.349653715100000E+02    1   38   15  1  0.5483285E+00   0.1000000E+01   0.9990000E+00     2
         1     1    -1     3   0.269694051443678E+05   0.364248480729905E+04   0.500000000000000E+03   0.349656749200000E+02    1   39   15  1  0.5699392E+00   0.1000000E+01   0.9990000E+00     2
         1     1    -1     3   0.295170043877854E+05   0.363961967911934E+04   0.250000000000000E+03   0.349655059900000E+02    1   40   15  1  0.5584787E+00   0.1000000E+01   0.9990000E+00     2
         1     1    -1     3   0.295170043877854E+05   0.363961967911934E+04   0.250000000000000E+03   0.349655059900000E+02    1   40   15  1  0.5584787E+00   0.1000000E+01   0.9990000E+00     2
