pcf                                                                                 
* control data                                                                            
restart estimation                                                                 
1   8760    7   0   1         
7   1   single  point         
10.0    -2.0    0.3 0.01    10                                         
10.0    10.0    0.001                                                       
0.1                                                      
50  0.005   4   4   0.005   4  
0   0   0                                                     
* parameter groups                                                                          
por_m   relative    0.01    0.0 switch  2.0 parabolic                                                           
por_f   relative    0.01    0.0 switch  2.0 parabolic                                                           
per_m   relative    0.01    0.0 switch  2.0 parabolic                                                           
per_l   relative    0.01    0.0 switch  2.0 parabolic                                                           
per_f   relative    0.01    0.0 switch  2.0 parabolic                                                           
emm_f   relative    0.01    0.0 switch  2.0 parabolic                                                           
emm_m   relative    0.01    0.0 switch  2.0 parabolic                                                           
* parameter data                                                                            
por_m00001  none    relative    0.12    0.005   0.2 por_m   1.0 0.0 1                                                                                                                             
* observation groups
piezo16
* observation data
16t63072000.0   417.19292   20  piezo16
16t63075600.0   417.19167   20  piezo16
16t63079200.0   417.18908   20  piezo16
16t63082800.0   417.18108   20  piezo16
16t63086400.0   417.17925   20  piezo16
16t63090000.0   417.16567   20  piezo16
16t63093600.0   417.15958   20  piezo16
16t63097200.0   417.15483   20  piezo16
16t63100800.0   417.15058   20  piezo16
16t63104400.0   417.14258   20  piezo16
16t63108000.0   417.13825   20  piezo16
16t63111600.0   417.12683   20  piezo16
16t63115200.0   417.12225   20  piezo16
16t63118800.0   417.11875   20  piezo16
16t63122400.0   417.10867   20  piezo16
16t63126000.0   417.10817   20  piezo16
16t63129600.0   417.10408   20  piezo16
16t63133200.0   417.0965    20  piezo16
16t63136800.0   417.09325   20  piezo16
16t63140400.0   417.08692   20  piezo16
16t63144000.0   417.07933   20  piezo16
16t63147600.0   417.0735    20  piezo16
16t63151200.0   417.06533   20  piezo16
16t63154800.0   417.0575    20  piezo16
16t63158400.0   417.05317   20  piezo16
16t63162000.0   417.04658   20  piezo16
16t63165600.0   417.04075   20  piezo16
16t63169200.0   417.03617   20  piezo16
16t63172800.0   417.02883   20  piezo16
16t63176400.0   417.0215    20  piezo16
16t63180000.0   417.01625   20  piezo16
16t63183600.0   417.01242   20  piezo16
16t63187200.0   417.00792   20  piezo16
16t63190800.0   417.00567   20  piezo16
16t63194400.0   417.00267   20  piezo16
16t63198000.0   416.99683   20  piezo16
16t63201600.0   416.99058   20  piezo16
16t63205200.0   416.98075   20  piezo16
16t63208800.0   416.98183   20  piezo16
16t63212400.0   416.96975   20  piezo16
16t63216000.0   416.9665    20  piezo16
16t63219600.0   416.96008   20  piezo16
16t63223200.0   416.95708   20  piezo16
16t63226800.0   416.95125   20  piezo16
16t63230400.0   416.9495    20  piezo16
16t63234000.0   416.94242   20  piezo16
16t63237600.0   416.93983   20  piezo16
16t63241200.0   416.93608   20  piezo16
16t63244800.0   416.93142   20  piezo16
16t63248400.0   416.92842   20  piezo16
16t63252000.0   416.92858   20  piezo16
16t63255600.0   416.92875   20  piezo16
16t63259200.0   416.92333   20  piezo16
16t63262800.0   416.92217   20  piezo16
16t63266400.0   416.92192   20  piezo16
16t63270000.0   416.9205    20  piezo16
16t63273600.0   416.91792   20  piezo16
16t63277200.0   416.92108   20  piezo16
16t63280800.0   416.91842   20  piezo16
16t63284400.0   416.92033   20  piezo16
16t63288000.0   416.91917   20  piezo16
16t63291600.0   416.91608   20  piezo16
16t63295200.0   416.915 20  piezo16
16t63298800.0   416.91133   20  piezo16
16t63302400.0   416.91167   20  piezo16
16t63306000.0   416.91083   20  piezo16
16t63309600.0   416.90933   20  piezo16
16t63313200.0   416.90933   20  piezo16
16t63316800.0   416.90917   20  piezo16
16t63320400.0   416.90992   20  piezo16
16t63324000.0   416.91308   20  piezo16
16t63327600.0   416.91383   20  piezo16
16t63331200.0   416.91133   20  piezo16
16t63334800.0   416.91367   20  piezo16
16t63338400.0   416.9155    20  piezo16
16t63342000.0   416.92308   20  piezo16
16t63345600.0   416.927 20  piezo16
16t63349200.0   416.93183   20  piezo16
16t63352800.0   416.93533   20  piezo16
16t63356400.0   416.94475   20  piezo16
16t63360000.0   416.95975   20  piezo16
16t63363600.0   416.97733   20  piezo16
16t63367200.0   416.9865    20  piezo16
16t63370800.0   417.00575   20  piezo16
16t63374400.0   417.03008   20  piezo16
16t63378000.0   417.06217   20  piezo16
16t63381600.0   417.10067   20  piezo16
16t63385200.0   417.13992   20  piezo16
16t63388800.0   417.17808   20  piezo16
16t63392400.0   417.21975   20  piezo16
16t63396000.0   417.26225   20  piezo16
16t63399600.0   417.31092   20  piezo16
16t63403200.0   417.36808   20  piezo16
16t63406800.0   417.42117   20  piezo16
16t63410400.0   417.4735    20  piezo16
16t63414000.0   417.51967   20  piezo16
16t63417600.0   417.56175   20  piezo16
16t63421200.0   417.59767   20  piezo16
16t63424800.0   417.628 20  piezo16
16t63428400.0   417.66433   20  piezo16
16t63432000.0   417.7055    20  piezo16
16t63435600.0   417.7525    20  piezo16
16t63439200.0   417.80683   20  piezo16
16t63442800.0   417.84883   20  piezo16
16t63446400.0   417.8885    20  piezo16
16t63450000.0   417.92267   20  piezo16
16t63453600.0   417.95192   20  piezo16
16t63457200.0   417.98325   20  piezo16
16t63460800.0   418.00642   20  piezo16
16t63464400.0   418.03017   20  piezo16
16t63468000.0   418.06242   20  piezo16
16t63471600.0   418.08792   20  piezo16
16t63475200.0   418.10608   20  piezo16
16t63478800.0   418.12042   20  piezo16
16t63482400.0   418.12467   20  piezo16
16t63486000.0   418.12317   20  piezo16
16t63489600.0   418.12642   20  piezo16
16t63493200.0   418.13092   20  piezo16
16t63496800.0   418.13567   20  piezo16
16t63500400.0   418.13175   20  piezo16
16t63504000.0   418.13125   20  piezo16
16t63507600.0   418.12258   20  piezo16
16t63511200.0   418.12125   20  piezo16
16t63514800.0   418.11842   20  piezo16
16t63518400.0   418.11533   20  piezo16
16t63522000.0   418.1125    20  piezo16
16t63525600.0   418.11725   20  piezo16
16t63529200.0   418.10375   20  piezo16
16t63532800.0   418.10292   20  piezo16
16t63536400.0   418.09408   20  piezo16
16t63540000.0   418.08375   20  piezo16
16t63543600.0   418.07267   20  piezo16
16t63547200.0   418.06075   20  piezo16
16t63550800.0   418.05158   20  piezo16
16t63554400.0   418.0355    20  piezo16
16t63558000.0   418.02325   20  piezo16
16t63561600.0   418.00967   20  piezo16
16t63565200.0   417.99458   20  piezo16
16t63568800.0   417.97725   20  piezo16
16t63572400.0   417.96342   20  piezo16
16t63576000.0   417.94875   20  piezo16
16t63579600.0   417.93767   20  piezo16
16t63583200.0   417.9215    20  piezo16
16t63586800.0   417.91192   20  piezo16
16t63590400.0   417.90567   20  piezo16
16t63594000.0   417.88925   20  piezo16
16t63597600.0   417.87992   20  piezo16
16t63601200.0   417.865 20  piezo16
16t63604800.0   417.84858   20  piezo16
16t63608400.0   417.83492   20  piezo16
16t63612000.0   417.82083   20  piezo16
16t63615600.0   417.80467   20  piezo16
16t63619200.0   417.79083   20  piezo16
16t63622800.0   417.77975   20  piezo16
16t63626400.0   417.76308   20  piezo16
16t63630000.0   417.741 20  piezo16
16t63633600.0   417.73058   20  piezo16
16t63637200.0   417.71992   20  piezo16
16t63640800.0   417.70067   20  piezo16
16t63644400.0   417.69158   20  piezo16
16t63648000.0   417.6805    20  piezo16
16t63651600.0   417.66842   20  piezo16
16t63655200.0   417.65675   20  piezo16
16t63658800.0   417.64417   20  piezo16
16t63662400.0   417.6325    20  piezo16
16t63666000.0   417.62317   20  piezo16
16t63669600.0   417.61233   20  piezo16
16t63673200.0   417.6035    20  piezo16
16t63676800.0   417.59542   20  piezo16
16t63680400.0   417.5855    20  piezo16
16t63684000.0   417.57492   20  piezo16
16t63687600.0   417.56558   20  piezo16
16t63691200.0   417.55775   20  piezo16
16t63694800.0   417.54475   20  piezo16
16t63698400.0   417.53542   20  piezo16
16t63702000.0   417.52608   20  piezo16
16t63705600.0   417.514 20  piezo16
16t63709200.0   417.50642   20  piezo16
16t63712800.0   417.49275   20  piezo16
16t63716400.0   417.48517   20  piezo16
16t63720000.0   417.47417   20  piezo16
16t63723600.0   417.46092   20  piezo16
16t63727200.0   417.45308   20  piezo16
16t63730800.0   417.442 20  piezo16
16t63734400.0   417.43167   20  piezo16
16t63738000.0   417.42675   20  piezo16
16t63741600.0   417.4095    20  piezo16
16t63745200.0   417.39617   20  piezo16
16t63748800.0   417.38475   20  piezo16
16t63752400.0   417.37142   20  piezo16
16t63756000.0   417.3635    20  piezo16
16t63759600.0   417.35  20  piezo16
16t63763200.0   417.33933   20  piezo16
16t63766800.0   417.329 20  piezo16
16t63770400.0   417.32183   20  piezo16
16t63774000.0   417.31225   20  piezo16
16t63777600.0   417.30233   20  piezo16
16t63781200.0   417.29758   20  piezo16
16t63784800.0   417.28142   20  piezo16
16t63788400.0   417.2705    20  piezo16
16t63792000.0   417.26442   20  piezo16
16t63795600.0   417.25692   20  piezo16
16t63799200.0   417.245 20  piezo16
16t63802800.0   417.23742   20  piezo16
16t63806400.0   417.22575   20  piezo16
16t63810000.0   417.21958   20  piezo16
16t63813600.0   417.214 20  piezo16
16t63817200.0   417.20508   20  piezo16
16t63820800.0   417.19983   20  piezo16
16t63824400.0   417.188 20  piezo16
16t63828000.0   417.18233   20  piezo16
16t63831600.0   417.17558   20  piezo16
16t63835200.0   417.16542   20  piezo16
16t63838800.0   417.15908   20  piezo16
16t63842400.0   417.1515    20  piezo16
16t63846000.0   417.14283   20  piezo16
16t63849600.0   417.13542   20  piezo16
16t63853200.0   417.13133   20  piezo16
16t63856800.0   417.125 20  piezo16
16t63860400.0   417.12392   20  piezo16
16t63864000.0   417.11025   20  piezo16
16t63867600.0   417.10217   20  piezo16
16t63871200.0   417.0985    20  piezo16
16t63874800.0   417.091 20  piezo16
16t63878400.0   417.08842   20  piezo16
16t63882000.0   417.08383   20  piezo16
16t63885600.0   417.076 20  piezo16
16t63889200.0   417.08075   20  piezo16
16t63892800.0   417.07283   20  piezo16
16t63896400.0   417.05858   20  piezo16
16t63900000.0   417.05575   20  piezo16
16t63903600.0   417.054 20  piezo16
16t63907200.0   417.04817   20  piezo16
16t63910800.0   417.04467   20  piezo16
16t63914400.0   417.04158   20  piezo16
16t63918000.0   417.03775   20  piezo16
16t63921600.0   417.04017   20  piezo16
16t63925200.0   417.031 20  piezo16
16t63928800.0   417.02992   20  piezo16
16t63932400.0   417.03033   20  piezo16
16t63936000.0   417.02475   20  piezo16
16t63939600.0   417.02467   20  piezo16
16t63943200.0   417.02075   20  piezo16
16t63946800.0   417.01192   20  piezo16
16t63950400.0   417.018 20  piezo16
16t63954000.0   417.015 20  piezo16
16t63957600.0   417.02192   20  piezo16
16t63961200.0   417.0365    20  piezo16
16t63964800.0   417.05267   20  piezo16
16t63968400.0   417.08617   20  piezo16
16t63972000.0   417.12392   20  piezo16
16t63975600.0   417.16917   20  piezo16
16t63979200.0   417.20967   20  piezo16
16t63982800.0   417.25367   20  piezo16
16t63986400.0   417.31867   20  piezo16
16t63990000.0   417.37742   20  piezo16
16t63993600.0   417.43492   20  piezo16
16t63997200.0   417.49358   20  piezo16
16t64000800.0   417.53692   20  piezo16
16t64004400.0   417.57592   20  piezo16
16t64008000.0   417.60942   20  piezo16
16t64011600.0   417.64708   20  piezo16
16t64015200.0   417.67917   20  piezo16
16t64018800.0   417.71517   20  piezo16
16t64022400.0   417.75558   20  piezo16
16t64026000.0   417.80058   20  piezo16
16t64029600.0   417.83767   20  piezo16
16t64033200.0   417.87533   20  piezo16
16t64036800.0   417.90667   20  piezo16
16t64040400.0   417.94175   20  piezo16
16t64044000.0   417.97308   20  piezo16
16t64047600.0   418.00192   20  piezo16
16t64051200.0   418.02792   20  piezo16
16t64054800.0   418.05817   20  piezo16
16t64058400.0   418.08525   20  piezo16
16t64062000.0   418.10867   20  piezo16
16t64065600.0   418.122 20  piezo16
16t64069200.0   418.13475   20  piezo16
16t64072800.0   418.13442   20  piezo16
16t64076400.0   418.145 20  piezo16
16t64080000.0   418.13975   20  piezo16
16t64083600.0   418.14392   20  piezo16
16t64087200.0   418.14692   20  piezo16
16t64090800.0   418.14733   20  piezo16
16t64094400.0   418.1425    20  piezo16
16t64098000.0   418.14225   20  piezo16
16t64101600.0   418.13842   20  piezo16
16t64105200.0   418.14267   20  piezo16
16t64108800.0   418.13875   20  piezo16
16t64112400.0   418.13592   20  piezo16
16t64116000.0   418.13458   20  piezo16
16t64119600.0   418.13  20  piezo16
16t64123200.0   418.12692   20  piezo16
16t64126800.0   418.1215    20  piezo16
16t64130400.0   418.12017   20  piezo16
16t64134000.0   418.12008   20  piezo16
16t64137600.0   418.11425   20  piezo16
16t64141200.0   418.11575   20  piezo16
16t64144800.0   418.11225   20  piezo16
16t64148400.0   418.10483   20  piezo16
16t64152000.0   418.09817   20  piezo16
16t64155600.0   418.0925    20  piezo16
16t64159200.0   418.08467   20  piezo16
16t64162800.0   418.071 20  piezo16
16t64166400.0   418.06058   20  piezo16
16t64170000.0   418.04367   20  piezo16
16t64173600.0   418.03025   20  piezo16
16t64177200.0   418.01817   20  piezo16
16t64180800.0   418.003 20  piezo16
16t64184400.0   417.98825   20  piezo16
16t64188000.0   417.97092   20  piezo16
16t64191600.0   417.96208   20  piezo16
16t64195200.0   417.95017   20  piezo16
16t64198800.0   417.9335    20  piezo16
16t64202400.0   417.92008   20  piezo16
16t64206000.0   417.91125   20  piezo16
16t64209600.0   417.89825   20  piezo16
16t64213200.0   417.89625   20  piezo16
16t64216800.0   417.88942   20  piezo16
16t64220400.0   417.88417   20  piezo16
16t64224000.0   417.87683   20  piezo16
16t64227600.0   417.868 20  piezo16
16t64231200.0   417.8635    20  piezo16
16t64234800.0   417.86067   20  piezo16
16t64238400.0   417.86475   20  piezo16
16t64242000.0   417.86067   20  piezo16
16t64245600.0   417.85725   20  piezo16
16t64249200.0   417.854 20  piezo16
16t64252800.0   417.85533   20  piezo16
16t64256400.0   417.85642   20  piezo16
16t64260000.0   417.85817   20  piezo16
16t64263600.0   417.86117   20  piezo16
16t64267200.0   417.86267   20  piezo16
16t64270800.0   417.86633   20  piezo16
16t64274400.0   417.87208   20  piezo16
16t64278000.0   417.8725    20  piezo16
16t64281600.0   417.8815    20  piezo16
16t64285200.0   417.88842   20  piezo16
16t64288800.0   417.89492   20  piezo16
16t64292400.0   417.905 20  piezo16
16t64296000.0   417.91708   20  piezo16
16t64299600.0   417.93392   20  piezo16
16t64303200.0   417.94775   20  piezo16
16t64306800.0   417.96483   20  piezo16
16t64310400.0   417.98  20  piezo16
16t64314000.0   417.99383   20  piezo16
16t64317600.0   418.0085    20  piezo16
16t64321200.0   418.018 20  piezo16
16t64324800.0   418.03033   20  piezo16
16t64328400.0   418.03983   20  piezo16
16t64332000.0   418.0605    20  piezo16
16t64335600.0   418.07942   20  piezo16
16t64339200.0   418.09817   20  piezo16
16t64342800.0   418.10625   20  piezo16
16t64346400.0   418.11792   20  piezo16
16t64350000.0   418.12375   20  piezo16
16t64353600.0   418.12983   20  piezo16
16t64357200.0   418.13183   20  piezo16
16t64360800.0   418.13317   20  piezo16
16t64364400.0   418.13575   20  piezo16
16t64368000.0   418.13617   20  piezo16
16t64371600.0   418.13658   20  piezo16
16t64375200.0   418.13567   20  piezo16
16t64378800.0   418.13483   20  piezo16
16t64382400.0   418.13608   20  piezo16
16t64386000.0   418.12917   20  piezo16
16t64389600.0   418.13217   20  piezo16
16t64393200.0   418.12458   20  piezo16
16t64396800.0   418.12458   20  piezo16
16t64400400.0   418.12283   20  piezo16
16t64404000.0   418.11958   20  piezo16
16t64407600.0   418.11933   20  piezo16
16t64411200.0   418.12133   20  piezo16
16t64414800.0   418.1215    20  piezo16
16t64418400.0   418.1185    20  piezo16
16t64422000.0   418.12008   20  piezo16
16t64425600.0   418.11842   20  piezo16
16t64429200.0   418.11925   20  piezo16
16t64432800.0   418.11675   20  piezo16
16t64436400.0   418.1135    20  piezo16
16t64440000.0   418.11117   20  piezo16
16t64443600.0   418.11242   20  piezo16
16t64447200.0   418.10517   20  piezo16
16t64450800.0   418.10192   20  piezo16
16t64454400.0   418.09717   20  piezo16
16t64458000.0   418.09117   20  piezo16
16t64461600.0   418.08383   20  piezo16
16t64465200.0   418.08467   20  piezo16
16t64468800.0   418.07758   20  piezo16
16t64472400.0   418.06375   20  piezo16
16t64476000.0   418.04992   20  piezo16
16t64479600.0   418.03958   20  piezo16
16t64483200.0   418.03942   20  piezo16
16t64486800.0   418.02667   20  piezo16
16t64490400.0   418.02217   20  piezo16
16t64494000.0   418.01917   20  piezo16
16t64497600.0   418.01267   20  piezo16
16t64501200.0   418.00858   20  piezo16
16t64504800.0   418.00683   20  piezo16
16t64508400.0   418.00683   20  piezo16
16t64512000.0   418.00842   20  piezo16
16t64515600.0   418.00792   20  piezo16
16t64519200.0   418.00667   20  piezo16
16t64522800.0   418.00667   20  piezo16
16t64526400.0   418.00517   20  piezo16
16t64530000.0   418.013 20  piezo16
16t64533600.0   418.0095    20  piezo16
16t64537200.0   418.00925   20  piezo16
16t64540800.0   418.00992   20  piezo16
16t64544400.0   418.00967   20  piezo16
16t64548000.0   418.01242   20  piezo16
16t64551600.0   418.00958   20  piezo16
16t64555200.0   418.01408   20  piezo16
16t64558800.0   418.00742   20  piezo16
16t64562400.0   418.00667   20  piezo16
16t64566000.0   418.00858   20  piezo16
16t64569600.0   418.00967   20  piezo16
16t64573200.0   418.00383   20  piezo16
16t64576800.0   417.99783   20  piezo16
16t64580400.0   417.99567   20  piezo16
16t64584000.0   417.9885    20  piezo16
16t64587600.0   417.98817   20  piezo16
16t64591200.0   417.98633   20  piezo16
16t64594800.0   417.979 20  piezo16
16t64598400.0   417.979 20  piezo16
16t64602000.0   417.97808   20  piezo16
16t64605600.0   417.97608   20  piezo16
16t64609200.0   417.96892   20  piezo16
16t64612800.0   417.96483   20  piezo16
16t64616400.0   417.95317   20  piezo16
16t64620000.0   417.95008   20  piezo16
16t64623600.0   417.94075   20  piezo16
16t64627200.0   417.93233   20  piezo16
16t64630800.0   417.92708   20  piezo16
16t64634400.0   417.9195    20  piezo16
16t64638000.0   417.91058   20  piezo16
16t64641600.0   417.906 20  piezo16
16t64645200.0   417.89517   20  piezo16
16t64648800.0   417.88983   20  piezo16
16t64652400.0   417.88225   20  piezo16
16t64656000.0   417.87117   20  piezo16
16t64659600.0   417.86033   20  piezo16
16t64663200.0   417.8465    20  piezo16
16t64666800.0   417.83917   20  piezo16
16t64670400.0   417.829 20  piezo16
16t64674000.0   417.82008   20  piezo16
16t64677600.0   417.81108   20  piezo16
16t64681200.0   417.80175   20  piezo16
16t64684800.0   417.78708   20  piezo16
16t64688400.0   417.77867   20  piezo16
16t64692000.0   417.76725   20  piezo16
16t64695600.0   417.75792   20  piezo16
16t64699200.0   417.74708   20  piezo16
16t64702800.0   417.738 20  piezo16
16t64706400.0   417.72758   20  piezo16
16t64710000.0   417.71675   20  piezo16
16t64713600.0   417.70183   20  piezo16
16t64717200.0   417.69142   20  piezo16
16t64720800.0   417.678 20  piezo16
16t64724400.0   417.66608   20  piezo16
16t64728000.0   417.655 20  piezo16
16t64731600.0   417.64658   20  piezo16
16t64735200.0   417.63808   20  piezo16
16t64738800.0   417.63508   20  piezo16
16t64742400.0   417.6295    20  piezo16
16t64746000.0   417.62017   20  piezo16
16t64749600.0   417.60808   20  piezo16
16t64753200.0   417.59875   20  piezo16
16t64756800.0   417.59183   20  piezo16
16t64760400.0   417.57925   20  piezo16
16t64764000.0   417.57492   20  piezo16
16t64767600.0   417.56325   20  piezo16
16t64771200.0   417.55392   20  piezo16
16t64774800.0   417.54808   20  piezo16
16t64778400.0   417.5405    20  piezo16
16t64782000.0   417.53525   20  piezo16
16t64785600.0   417.52058   20  piezo16
16t64789200.0   417.516 20  piezo16
16t64792800.0   417.50992   20  piezo16
16t64796400.0   417.49675   20  piezo16
16t64800000.0   417.48758   20  piezo16
16t64803600.0   417.47842   20  piezo16
16t64807200.0   417.4695    20  piezo16
16t64810800.0   417.46033   20  piezo16
16t64814400.0   417.45017   20  piezo16
16t64818000.0   417.4395    20  piezo16
16t64821600.0   417.42767   20  piezo16
16t64825200.0   417.4155    20  piezo16
16t64828800.0   417.40767   20  piezo16
16t64832400.0   417.39558   20  piezo16
16t64836000.0   417.38217   20  piezo16
16t64839600.0   417.37325   20  piezo16
16t64843200.0   417.36433   20  piezo16
16t64846800.0   417.35292   20  piezo16
16t64850400.0   417.344 20  piezo16
16t64854000.0   417.33292   20  piezo16
16t64857600.0   417.32833   20  piezo16
16t64861200.0   417.319 20  piezo16
16t64864800.0   417.30892   20  piezo16
16t64868400.0   417.29958   20  piezo16
16t64872000.0   417.29075   20  piezo16
16t64875600.0   417.28217   20  piezo16
16t64879200.0   417.27258   20  piezo16
16t64882800.0   417.26458   20  piezo16
16t64886400.0   417.25742   20  piezo16
16t64890000.0   417.24508   20  piezo16
16t64893600.0   417.23708   20  piezo16
16t64897200.0   417.2295    20  piezo16
16t64900800.0   417.22092   20  piezo16
16t64904400.0   417.20983   20  piezo16
16t64908000.0   417.20883   20  piezo16
16t64911600.0   417.19758   20  piezo16
16t64915200.0   417.19158   20  piezo16
16t64918800.0   417.18033   20  piezo16
16t64922400.0   417.17258   20  piezo16
16t64926000.0   417.16525   20  piezo16
16t64929600.0   417.15592   20  piezo16
16t64933200.0   417.14733   20  piezo16
16t64936800.0   417.13908   20  piezo16
16t64940400.0   417.12875   20  piezo16
16t64944000.0   417.11633   20  piezo16
16t64947600.0   417.10983   20  piezo16
16t64951200.0   417.10008   20  piezo16
16t64954800.0   417.0915    20  piezo16
16t64958400.0   417.08325   20  piezo16
16t64962000.0   417.07475   20  piezo16
16t64965600.0   417.06617   20  piezo16
16t64969200.0   417.06092   20  piezo16
16t64972800.0   417.05325   20  piezo16
16t64976400.0   417.04175   20  piezo16
16t64980000.0   417.03683   20  piezo16
16t64983600.0   417.02658   20  piezo16
16t64987200.0   417.02158   20  piezo16
16t64990800.0   417.00983   20  piezo16
16t64994400.0   417.00183   20  piezo16
16t64998000.0   416.99733   20  piezo16
16t65001600.0   416.98808   20  piezo16
16t65005200.0   416.98308   20  piezo16
16t65008800.0   416.97592   20  piezo16
16t65012400.0   416.96975   20  piezo16
16t65016000.0   416.96017   20  piezo16
16t65019600.0   416.95908   20  piezo16
16t65023200.0   416.95433   20  piezo16
16t65026800.0   416.94633   20  piezo16
16t65030400.0   416.9425    20  piezo16
16t65034000.0   416.93475   20  piezo16
16t65037600.0   416.93583   20  piezo16
16t65041200.0   416.92633   20  piezo16
16t65044800.0   416.9225    20  piezo16
16t65048400.0   416.922 20  piezo16
16t65052000.0   416.92092   20  piezo16
16t65055600.0   416.91617   20  piezo16
16t65059200.0   416.91567   20  piezo16
16t65062800.0   416.91133   20  piezo16
16t65066400.0   416.907 20  piezo16
16t65070000.0   416.90442   20  piezo16
16t65073600.0   416.90417   20  piezo16
16t65077200.0   416.89933   20  piezo16
16t65080800.0   416.89675   20  piezo16
16t65084400.0   416.8965    20  piezo16
16t65088000.0   416.89367   20  piezo16
16t65091600.0   416.89342   20  piezo16
16t65095200.0   416.888 20  piezo16
16t65098800.0   416.88692   20  piezo16
16t65102400.0   416.88258   20  piezo16
16t65106000.0   416.88208   20  piezo16
16t65109600.0   416.88083   20  piezo16
16t65113200.0   416.87783   20  piezo16
16t65116800.0   416.87375   20  piezo16
16t65120400.0   416.87233   20  piezo16
16t65124000.0   416.87067   20  piezo16
16t65127600.0   416.87458   20  piezo16
16t65131200.0   416.86883   20  piezo16
16t65134800.0   416.86558   20  piezo16
16t65138400.0   416.86667   20  piezo16
16t65142000.0   416.86367   20  piezo16
16t65145600.0   416.86092   20  piezo16
16t65149200.0   416.85942   20  piezo16
16t65152800.0   416.85792   20  piezo16
16t65156400.0   416.85642   20  piezo16
16t65160000.0   416.85492   20  piezo16
16t65163600.0   416.85342   20  piezo16
16t65167200.0   416.8515    20  piezo16
16t65170800.0   416.85108   20  piezo16
16t65174400.0   416.84833   20  piezo16
16t65178000.0   416.84983   20  piezo16
16t65181600.0   416.84483   20  piezo16
16t65185200.0   416.84333   20  piezo16
16t65188800.0   416.8405    20  piezo16
16t65192400.0   416.83892   20  piezo16
16t65196000.0   416.83958   20  piezo16
16t65199600.0   416.83658   20  piezo16
16t65203200.0   416.84042   20  piezo16
16t65206800.0   416.83808   20  piezo16
16t65210400.0   416.83567   20  piezo16
16t65214000.0   416.83183   20  piezo16
16t65217600.0   416.83158   20  piezo16
16t65221200.0   416.83433   20  piezo16
16t65224800.0   416.829 20  piezo16
16t65228400.0   416.8285    20  piezo16
16t65232000.0   416.82542   20  piezo16
16t65235600.0   416.825 20  piezo16
16t65239200.0   416.82475   20  piezo16
16t65242800.0   416.8245    20  piezo16
16t65246400.0   416.82125   20  piezo16
16t65250000.0   416.81992   20  piezo16
16t65253600.0   416.82033   20  piezo16
16t65257200.0   416.81858   20  piezo16
16t65260800.0   416.8175    20  piezo16
16t65264400.0   416.81167   20  piezo16
16t65268000.0   416.81267   20  piezo16
16t65271600.0   416.81108   20  piezo16
16t65275200.0   416.80717   20  piezo16
16t65278800.0   416.80708   20  piezo16
16t65282400.0   416.803 20  piezo16
16t65286000.0   416.80342   20  piezo16
16t65289600.0   416.80467   20  piezo16
16t65293200.0   416.80317   20  piezo16
16t65296800.0   416.80292   20  piezo16
16t65300400.0   416.79908   20  piezo16
16t65304000.0   416.80033   20  piezo16
16t65307600.0   416.79558   20  piezo16
16t65311200.0   416.79708   20  piezo16
16t65314800.0   416.79283   20  piezo16
16t65318400.0   416.79717   20  piezo16
16t65322000.0   416.79567   20  piezo16
16t65325600.0   416.8   20  piezo16
16t65329200.0   416.80175   20  piezo16
16t65332800.0   416.80517   20  piezo16
16t65336400.0   416.80742   20  piezo16
16t65340000.0   416.81433   20  piezo16
16t65343600.0   416.81592   20  piezo16
16t65347200.0   416.8235    20  piezo16
16t65350800.0   416.82783   20  piezo16
16t65354400.0   416.83242   20  piezo16
16t65358000.0   416.83442   20  piezo16
16t65361600.0   416.843 20  piezo16
16t65365200.0   416.84775   20  piezo16
16t65368800.0   416.8545    20  piezo16
16t65372400.0   416.86483   20  piezo16
16t65376000.0   416.86767   20  piezo16
16t65379600.0   416.877 20  piezo16
16t65383200.0   416.88308   20  piezo16
16t65386800.0   416.89625   20  piezo16
16t65390400.0   416.90208   20  piezo16
16t65394000.0   416.90967   20  piezo16
16t65397600.0   416.9205    20  piezo16
16t65401200.0   416.93217   20  piezo16
16t65404800.0   416.94192   20  piezo16
16t65408400.0   416.95075   20  piezo16
16t65412000.0   416.95875   20  piezo16
16t65415600.0   416.97425   20  piezo16
16t65419200.0   416.98608   20  piezo16
16t65422800.0   417.00042   20  piezo16
16t65426400.0   417.00925   20  piezo16
16t65430000.0   417.02442   20  piezo16
16t65433600.0   417.03675   20  piezo16
16t65437200.0   417.05292   20  piezo16
16t65440800.0   417.07108   20  piezo16
16t65444400.0   417.08667   20  piezo16
16t65448000.0   417.105 20  piezo16
16t65451600.0   417.12575   20  piezo16
16t65455200.0   417.14208   20  piezo16
16t65458800.0   417.16267   20  piezo16
16t65462400.0   417.17825   20  piezo16
16t65466000.0   417.19767   20  piezo16
16t65469600.0   417.20975   20  piezo16
16t65473200.0   417.22867   20  piezo16
16t65476800.0   417.24658   20  piezo16
16t65480400.0   417.26308   20  piezo16
16t65484000.0   417.279 20  piezo16
16t65487600.0   417.298 20  piezo16
16t65491200.0   417.31658   20  piezo16
16t65494800.0   417.33325   20  piezo16
16t65498400.0   417.362 20  piezo16
16t65502000.0   417.391 20  piezo16
16t65505600.0   417.42433   20  piezo16
16t65509200.0   417.46083   20  piezo16
16t65512800.0   417.49242   20  piezo16
16t65516400.0   417.52767   20  piezo16
16t65520000.0   417.55667   20  piezo16
16t65523600.0   417.58408   20  piezo16
16t65527200.0   417.60583   20  piezo16
16t65530800.0   417.62633   20  piezo16
16t65534400.0   417.6445    20  piezo16
16t65538000.0   417.66858   20  piezo16
16t65541600.0   417.692 20  piezo16
16t65545200.0   417.72083   20  piezo16
16t65548800.0   417.75125   20  piezo16
16t65552400.0   417.78842   20  piezo16
16t65556000.0   417.82817   20  piezo16
16t65559600.0   417.86333   20  piezo16
16t65563200.0   417.90283   20  piezo16
16t65566800.0   417.94083   20  piezo16
16t65570400.0   417.98558   20  piezo16
16t65574000.0   418.02275   20  piezo16
16t65577600.0   418.053 20  piezo16
16t65581200.0   418.09683   20  piezo16
16t65584800.0   418.13567   20  piezo16
16t65588400.0   418.156 20  piezo16
16t65592000.0   418.1735    20  piezo16
16t65595600.0   418.18367   20  piezo16
16t65599200.0   418.19125   20  piezo16
16t65602800.0   418.19733   20  piezo16
16t65606400.0   418.20467   20  piezo16
16t65610000.0   418.20792   20  piezo16
16t65613600.0   418.21742   20  piezo16
16t65617200.0   418.22033   20  piezo16
16t65620800.0   418.2225    20  piezo16