pcf
#######################################
* control data
restart       estimation

#RSTFLE       PESTMODE
17            862           10            0             4
#NPAR         NOBS          NPARGP        NPRIOR        NOBSGP        [MAXCOMPDIM]
4             3             single        point         1             0             0
#NTPLFLE      NINSFLE       PRECIS        DPOINT        [NUMCOM]      [JACFILE]     [MESSFILE]      [OBSREREF]
10.0          -3.0          0.3           0.01          8             0             lamforgive      noderforgive
#RLAMBDA1     RLAMFAC       PHIRATSUF     PHIREDLAM     NUMLAM        [JACUPDATE]   [LAMFORGIVE]    [DERFORGIVE]
5             5             0.001         0
#RELPARMAX    FACPARMAX     FACORIG       [IBOUNDSTICK] [UPVECBEND]   [ABSPARMAX]
0.1
#PHIREDSWH    [NOPTSWITCH]  [SPLITSWH]    [DOAUI]       [DOSENREUSE]  [BOUNDSCALE]
50            0.005         4             3             0.01          3
#NOPTMAX      PHIREDSTP     NPHISTP       NPHINORED     RELPARSTP     NRELPAR       [PHISTOPTHRESH] [LASTRUN]    [PHIABANDON]
1             1             1
#ICOV         ICOR          IEIG          [IRES]        [JCOSAVE]     [VERBOSEREC]  [JCOSAVEITN]    [REISAVEITN] [PARSAVEITN] [PARSAVERUN]
#######################################
* singular value decomposition
0
#SVDMODE
30            5e-7
#MAXSING      EIGTHRESH
0
#EIGWRITE
#######################################
* parameter groups
#PARGPNME INCTYP    DERINC DERINCLB FORCEN  DERINCMUL  DERMTHD  [SPLITTHRESH SPLITRELDIFF SPLITACTION]
DIA       relative  0.01   0.0      switch  2.0     parabolic
CADS      relative  0.01   0.0      switch  2.0     parabolic
EXCH      relative  0.01   0.0      switch  2.0     parabolic
TORT      relative  0.01   0.0      switch  2.0     parabolic
ROUGH     relative  0.01   0.0      switch  2.0     parabolic
QDIR      relative  0.01   0.0      switch  2.0     parabolic
KM        relative  0.01   0.0      switch  2.0     parabolic
SM        relative  0.01   0.0      switch  2.0     parabolic
S_HEAT    relative  0.01   0.0      switch  2.0     parabolic
T_COND    relative  0.01   0.0      switch  2.0     parabolic
#######################################
* parameter data
# parnme     partrans  parchglim  parval1     parlbnd   parubnd   pargp   scale   offset  dercom
cond_d_trac1 log factor 3.923310E-01 3.825800E-01 4.023310E-01 dia 1 0 1
cond_d_trac2 log factor 3.245350E-01 3.162350E-01 3.330530E-01 dia 1 0 1
tort_tracer1 log factor 5.139890E+00 4.761570E+00 5.548260E+00 tort 1 0 1
tort_tracer2 log factor 5.958940E+00 5.380350E+00 6.599750E+00 tort 1 0 1
rough_trace1 log factor 1.000000E+00 9.393810E-01 1.064530E+00 rough 1 0 1
rough_trace2 log factor 1.847880E-01 1.573870E-01 2.169600E-01 rough 1 0 1
exch_coef_t1 log factor 1.599504E-04 1.433443E-04 1.784802E-04 exch 1 0 1
exch_coef_t2 log factor 1.830016E-04 1.515859E-04 2.209281E-04 exch 1 0 1
cads_tracer1 log factor 5.043781E-03 4.513872E-03 5.635900E-03 cads 1 0 1
cads_tracer2 log factor 2.479586E-02 2.136083E-02 2.878329E-02 cads 1 0 1
matrix____hk log factor 1.541668E-06 1.292592E-06 1.838738E-06 km 1 0 1
conduit__rch none factor 6.534890E-01 6.104950E-01 6.964840E-01 qdir 1 0 1
cads_____rch none factor 3.455590E-01 2.948000E-01 3.963180E-01 qdir 1 0 1
rock_sp_heat log factor 5.000000E+03 4.270990E+03 5.853450E+03 s_heat 1 0 1
rock_th_cond log factor 3.532450E+00 3.090680E+00 4.037370E+00 t_cond 1 0 1
matrix___vka tied factor 1.541668E-07 1.000000E-08 1.000000E-04 km 1 0 1
matrix____sy fixed factor 5.000000E-02 1.000000E-02 3.000000E-01 sm 1 0 1
##
# PARNME     PARTIED
MATRIX___VKA    MATRIX____HK
#######################################
#### PESTPP-SEN
++ gsa_method(morris)   rand_seed(1234)   gsa_morris_r(10)   gsa_morris_p(4)   gsa_morris_delta(0.667)    gsa_morris_obs_sen(true)   tie_by_group(false)
## ++ method(sobol) rand_seed()   sobol_samples()              sobol_par_dist()       tie_by_group(false)
#######################################
* observation groups
FLOW
HEAD
HEAT
SOLUTE
#PI_CRCH
#######################################
* observation data
Steady_st_head   359.66 1       HEAD
DISCHARGE_0000 -0.0267 371.116 FLOW
DISCHARGE_0001 -0.0267 371.116 FLOW
DISCHARGE_0002 -0.0267 371.116 FLOW
DISCHARGE_0004 -0.0266 371.116 FLOW
DISCHARGE_0006 -0.0267 371.116 FLOW
DISCHARGE_0008 -0.0267 371.116 FLOW
DISCHARGE_0011 -0.0266 371.116 FLOW
DISCHARGE_0015 -0.0266 371.116 FLOW
DISCHARGE_0020 -0.0266 371.116 FLOW
DISCHARGE_0025 -0.0266 371.116 FLOW
DISCHARGE_0033 -0.0267 371.116 FLOW
DISCHARGE_0042 -0.0266 371.116 FLOW
DISCHARGE_0053 -0.0266 371.116 FLOW
DISCHARGE_0068 -0.0267 371.116 FLOW
DISCHARGE_0085 -0.0267 371.116 FLOW
DISCHARGE_0108 -0.0266 371.116 FLOW
DISCHARGE_0136 -0.0267 371.116 FLOW
DISCHARGE_0170 -0.0266 371.116 FLOW
DISCHARGE_0214 -0.0266 371.116 FLOW
DISCHARGE_0216 -0.0266 371.116 FLOW
DISCHARGE_0218 -0.0266 371.116 FLOW
DISCHARGE_0220 -0.0266 371.116 FLOW
DISCHARGE_0222 -0.0267 371.116 FLOW
DISCHARGE_0224 -0.0267 371.116 FLOW
DISCHARGE_0226 -0.0267 371.116 FLOW
DISCHARGE_0229 -0.0268 371.116 FLOW
DISCHARGE_0231 -0.0268 371.116 FLOW
DISCHARGE_0233 -0.0268 371.116 FLOW
DISCHARGE_0235 -0.0268 371.116 FLOW
DISCHARGE_0237 -0.0268 371.116 FLOW
DISCHARGE_0240 -0.0268 371.116 FLOW
DISCHARGE_0242 -0.0268 371.116 FLOW
DISCHARGE_0245 -0.0268 371.116 FLOW
DISCHARGE_0247 -0.0268 371.116 FLOW
DISCHARGE_0249 -0.0269 371.116 FLOW
DISCHARGE_0252 -0.0268 371.116 FLOW
DISCHARGE_0255 -0.0269 371.116 FLOW
DISCHARGE_0257 -0.0269 371.116 FLOW
DISCHARGE_0260 -0.0270 371.116 FLOW
DISCHARGE_0262 -0.0270 371.116 FLOW
DISCHARGE_0265 -0.0269 371.116 FLOW
DISCHARGE_0268 -0.0269 371.116 FLOW
DISCHARGE_0271 -0.0269 371.116 FLOW
DISCHARGE_0273 -0.0269 371.116 FLOW
DISCHARGE_0276 -0.0270 371.116 FLOW
DISCHARGE_0279 -0.0271 371.116 FLOW
DISCHARGE_0282 -0.0271 371.116 FLOW
DISCHARGE_0285 -0.0270 371.116 FLOW
DISCHARGE_0288 -0.0271 371.116 FLOW
DISCHARGE_0291 -0.0271 371.116 FLOW
DISCHARGE_0294 -0.0271 371.116 FLOW
DISCHARGE_0298 -0.0271 371.116 FLOW
DISCHARGE_0301 -0.0271 371.116 FLOW
DISCHARGE_0304 -0.0273 371.116 FLOW
DISCHARGE_0307 -0.0273 371.116 FLOW
DISCHARGE_0311 -0.0275 371.116 FLOW
DISCHARGE_0314 -0.0275 371.116 FLOW
DISCHARGE_0318 -0.0275 371.116 FLOW
DISCHARGE_0321 -0.0277 371.116 FLOW
DISCHARGE_0325 -0.0277 371.116 FLOW
DISCHARGE_0328 -0.0278 371.116 FLOW
DISCHARGE_0332 -0.0278 371.116 FLOW
DISCHARGE_0336 -0.0281 371.116 FLOW
DISCHARGE_0340 -0.0281 371.116 FLOW
DISCHARGE_0344 -0.0282 371.116 FLOW
DISCHARGE_0347 -0.0282 371.116 FLOW
DISCHARGE_0351 -0.0281 371.116 FLOW
DISCHARGE_0355 -0.0283 371.116 FLOW
DISCHARGE_0360 -0.0284 371.116 FLOW
DISCHARGE_0364 -0.0285 371.116 FLOW
DISCHARGE_0368 -0.0287 371.116 FLOW
DISCHARGE_0372 -0.0287 371.116 FLOW
DISCHARGE_0377 -0.0287 371.116 FLOW
DISCHARGE_0381 -0.0289 371.116 FLOW
DISCHARGE_0385 -0.0290 371.116 FLOW
DISCHARGE_0390 -0.0292 371.116 FLOW
DISCHARGE_0395 -0.0292 371.116 FLOW
DISCHARGE_0399 -0.0293 371.116 FLOW
DISCHARGE_0404 -0.0294 371.116 FLOW
DISCHARGE_0409 -0.0295 371.116 FLOW
DISCHARGE_0414 -0.0298 371.116 FLOW
DISCHARGE_0419 -0.0299 371.116 FLOW
DISCHARGE_0424 -0.0299 371.116 FLOW
DISCHARGE_0429 -0.0300 371.116 FLOW
DISCHARGE_0434 -0.0300 371.116 FLOW
DISCHARGE_0439 -0.0301 371.116 FLOW
DISCHARGE_0445 -0.0303 371.116 FLOW
DISCHARGE_0450 -0.0304 371.116 FLOW
DISCHARGE_0456 -0.0304 371.116 FLOW
DISCHARGE_0461 -0.0304 371.116 FLOW
DISCHARGE_0467 -0.0307 371.116 FLOW
DISCHARGE_0473 -0.0309 371.116 FLOW
DISCHARGE_0479 -0.0308 371.116 FLOW
DISCHARGE_0485 -0.0308 371.116 FLOW
DISCHARGE_0491 -0.0308 371.116 FLOW
DISCHARGE_0497 -0.0309 371.116 FLOW
DISCHARGE_0503 -0.0310 371.116 FLOW
DISCHARGE_0509 -0.0311 371.116 FLOW
DISCHARGE_0516 -0.0311 371.116 FLOW
DISCHARGE_0522 -0.0314 371.116 FLOW
DISCHARGE_0529 -0.0315 371.116 FLOW
DISCHARGE_0535 -0.0315 371.116 FLOW
DISCHARGE_0542 -0.0317 371.116 FLOW
DISCHARGE_0549 -0.0319 371.116 FLOW
DISCHARGE_0556 -0.0320 371.116 FLOW
DISCHARGE_0563 -0.0321 371.116 FLOW
DISCHARGE_0570 -0.0321 371.116 FLOW
DISCHARGE_0578 -0.0322 371.116 FLOW
DISCHARGE_0585 -0.0321 371.116 FLOW
DISCHARGE_0593 -0.0322 371.116 FLOW
DISCHARGE_0600 -0.0322 371.116 FLOW
DISCHARGE_0608 -0.0323 371.116 FLOW
DISCHARGE_0616 -0.0326 371.116 FLOW
DISCHARGE_0624 -0.0323 371.116 FLOW
DISCHARGE_0632 -0.0325 371.116 FLOW
DISCHARGE_0640 -0.0326 371.116 FLOW
DISCHARGE_0649 -0.0328 371.116 FLOW
DISCHARGE_0657 -0.0330 371.116 FLOW
DISCHARGE_0666 -0.0328 371.116 FLOW
DISCHARGE_0675 -0.0330 371.116 FLOW
DISCHARGE_0684 -0.0330 371.116 FLOW
DISCHARGE_0693 -0.0332 371.116 FLOW
DISCHARGE_0702 -0.0335 371.116 FLOW
DISCHARGE_0711 -0.0333 371.116 FLOW
DISCHARGE_0720 -0.0331 371.116 FLOW
DISCHARGE_0730 -0.0333 371.116 FLOW
DISCHARGE_0740 -0.0335 371.116 FLOW
DISCHARGE_0750 -0.0335 371.116 FLOW
DISCHARGE_0760 -0.0333 371.116 FLOW
DISCHARGE_0770 -0.0332 371.116 FLOW
DISCHARGE_0780 -0.0336 371.116 FLOW
DISCHARGE_0791 -0.0337 371.116 FLOW
DISCHARGE_0801 -0.0335 371.116 FLOW
DISCHARGE_0812 -0.0335 371.116 FLOW
DISCHARGE_0823 -0.0332 371.116 FLOW
DISCHARGE_0834 -0.0332 371.116 FLOW
DISCHARGE_0845 -0.0331 371.116 FLOW
DISCHARGE_0857 -0.0330 371.116 FLOW
DISCHARGE_0868 -0.0331 371.116 FLOW
DISCHARGE_0880 -0.0330 371.116 FLOW
DISCHARGE_0892 -0.0330 371.116 FLOW
DISCHARGE_0904 -0.0330 371.116 FLOW
DISCHARGE_0917 -0.0330 371.116 FLOW
DISCHARGE_0929 -0.0330 371.116 FLOW
DISCHARGE_0942 -0.0328 371.116 FLOW
DISCHARGE_0955 -0.0327 371.116 FLOW
DISCHARGE_0968 -0.0327 371.116 FLOW
DISCHARGE_0981 -0.0327 371.116 FLOW
DISCHARGE_0994 -0.0326 371.116 FLOW
DISCHARGE_1008 -0.0327 371.116 FLOW
DISCHARGE_1022 -0.0330 371.116 FLOW
DISCHARGE_1036 -0.0330 371.116 FLOW
DISCHARGE_1050 -0.0330 371.116 FLOW
DISCHARGE_1065 -0.0325 371.116 FLOW
DISCHARGE_1080 -0.0323 371.116 FLOW
DISCHARGE_1095 -0.0323 371.116 FLOW
DISCHARGE_1110 -0.0321 371.116 FLOW
DISCHARGE_1125 -0.0317 371.116 FLOW
DISCHARGE_1141 -0.0319 371.116 FLOW
DISCHARGE_1157 -0.0317 371.116 FLOW
DISCHARGE_1173 -0.0316 371.116 FLOW
DISCHARGE_1189 -0.0316 371.116 FLOW
DISCHARGE_1206 -0.0315 371.116 FLOW
DISCHARGE_1223 -0.0311 371.116 FLOW
DISCHARGE_1240 -0.0310 371.116 FLOW
DISCHARGE_1257 -0.0309 371.116 FLOW
DISCHARGE_1275 -0.0309 371.116 FLOW
DISCHARGE_1293 -0.0307 371.116 FLOW
DISCHARGE_1311 -0.0308 371.116 FLOW
DISCHARGE_1329 -0.0307 371.116 FLOW
DISCHARGE_1348 -0.0304 371.116 FLOW
DISCHARGE_1367 -0.0303 371.116 FLOW
DISCHARGE_1386 -0.0301 371.116 FLOW
DISCHARGE_1406 -0.0300 371.116 FLOW
DISCHARGE_1426 -0.0299 371.116 FLOW
DISCHARGE_1446 -0.0295 371.116 FLOW
DISCHARGE_1466 -0.0295 371.116 FLOW
DISCHARGE_1487 -0.0293 371.116 FLOW
DISCHARGE_1508 -0.0292 371.116 FLOW
DISCHARGE_1529 -0.0290 371.116 FLOW
DISCHARGE_1551 -0.0291 371.116 FLOW
DISCHARGE_1573 -0.0290 371.116 FLOW
DISCHARGE_1595 -0.0289 371.116 FLOW
DISCHARGE_1618 -0.0290 371.116 FLOW
DISCHARGE_1641 -0.0290 371.116 FLOW
DISCHARGE_1665 -0.0287 371.116 FLOW
DISCHARGE_1688 -0.0284 371.116 FLOW
DISCHARGE_1712 -0.0283 371.116 FLOW
DISCHARGE_1737 -0.0281 371.116 FLOW
DISCHARGE_1762 -0.0281 371.116 FLOW
DISCHARGE_1787 -0.0281 371.116 FLOW
DISCHARGE_1812 -0.0282 371.116 FLOW
DISCHARGE_1838 -0.0278 371.116 FLOW
DISCHARGE_1865 -0.0280 371.116 FLOW
DISCHARGE_1891 -0.0275 371.116 FLOW
DISCHARGE_1919 -0.0275 371.116 FLOW
DISCHARGE_1946 -0.0275 371.116 FLOW
DISCHARGE_1974 -0.0274 371.116 FLOW
DISCHARGE_2003 -0.0271 371.116 FLOW
DISCHARGE_2031 -0.0271 371.116 FLOW
DISCHARGE_2061 -0.0273 371.116 FLOW
DISCHARGE_2090 -0.0272 371.116 FLOW
DISCHARGE_2120 -0.0270 371.116 FLOW
DISCHARGE_2151 -0.0268 371.116 FLOW
DISCHARGE_2182 -0.0267 371.116 FLOW
DISCHARGE_2213 -0.0266 371.116 FLOW
DISCHARGE_2245 -0.0265 371.116 FLOW
DISCHARGE_2278 -0.0266 371.116 FLOW
DISCHARGE_2311 -0.0265 371.116 FLOW
DISCHARGE_2344 -0.0265 371.116 FLOW
DISCHARGE_2378 -0.0263 371.116 FLOW
DISCHARGE_2413 -0.0264 371.116 FLOW
DISCHARGE_2447 -0.0264 371.116 FLOW
DISCHARGE_2483 -0.0264 371.116 FLOW
DISCHARGE_2519 -0.0264 371.116 FLOW
DISCHARGE_2556 -0.0262 371.116 FLOW
DISCHARGE_2593 -0.0261 371.116 FLOW
DISCHARGE_2630 -0.0262 371.116 FLOW
DISCHARGE_2668 -0.0259 371.116 FLOW
DISCHARGE_2707 -0.0260 371.116 FLOW
DISCHARGE_2747 -0.0260 371.116 FLOW
DISCHARGE_2787 -0.0259 371.116 FLOW
DISCHARGE_2827 -0.0259 371.116 FLOW
DISCHARGE_2868 -0.0260 371.116 FLOW
DISCHARGE_2910 -0.0259 371.116 FLOW
DISCHARGE_2953 -0.0258 371.116 FLOW
DISCHARGE_2996 -0.0258 371.116 FLOW
DISCHARGE_3039 -0.0262 371.116 FLOW
DISCHARGE_3084 -0.0258 371.116 FLOW
DISCHARGE_3129 -0.0260 371.116 FLOW
DISCHARGE_3174 -0.0258 371.116 FLOW
DISCHARGE_3221 -0.0258 371.116 FLOW
DISCHARGE_3268 -0.0259 371.116 FLOW
DISCHARGE_3316 -0.0257 371.116 FLOW
DISCHARGE_3364 -0.0258 371.116 FLOW
DISCHARGE_3413 -0.0258 371.116 FLOW
DISCHARGE_3463 -0.0257 371.116 FLOW
DISCHARGE_3514 -0.0255 371.116 FLOW
DISCHARGE_3566 -0.0254 371.116 FLOW
DISCHARGE_3618 -0.0252 371.116 FLOW
DISCHARGE_3671 -0.0252 371.116 FLOW
DISCHARGE_3725 -0.0251 371.116 FLOW
DISCHARGE_3779 -0.0252 371.116 FLOW
DISCHARGE_3835 -0.0252 371.116 FLOW
DISCHARGE_3891 -0.0252 371.116 FLOW
DISCHARGE_3948 -0.0252 371.116 FLOW
DISCHARGE_4006 -0.0254 371.116 FLOW
DISCHARGE_4065 -0.0252 371.116 FLOW
DISCHARGE_4125 -0.0252 371.116 FLOW
DISCHARGE_4185 -0.0253 371.116 FLOW
DISCHARGE_4247 -0.0252 371.116 FLOW
DISCHARGE_4309 -0.0252 371.116 FLOW
DISCHARGE_4373 -0.0254 371.116 FLOW
DISCHARGE_4437 -0.0252 371.116 FLOW
DISCHARGE_4502 -0.0253 371.116 FLOW
DISCHARGE_4569 -0.0254 371.116 FLOW
DISCHARGE_4636 -0.0254 371.116 FLOW
DISCHARGE_4704 -0.0254 371.116 FLOW
DISCHARGE_4774 -0.0254 371.116 FLOW
DISCHARGE_4844 -0.0254 371.116 FLOW
DISCHARGE_4915 -0.0256 371.116 FLOW
DISCHARGE_4988 -0.0256 371.116 FLOW
DISCHARGE_5062 -0.0256 371.116 FLOW
DISCHARGE_5136 -0.0256 371.116 FLOW
DISCHARGE_5212 -0.0258 371.116 FLOW
DISCHARGE_5289 -0.0258 371.116 FLOW
DISCHARGE_5367 -0.0257 371.116 FLOW
DISCHARGE_5446 -0.0256 371.116 FLOW
DISCHARGE_5527 -0.0258 371.116 FLOW
DISCHARGE_5608 -0.0258 371.116 FLOW
DISCHARGE_5691 -0.0258 371.116 FLOW
DISCHARGE_5775 -0.0259 371.116 FLOW
DISCHARGE_5861 -0.0258 371.116 FLOW
DISCHARGE_5948 -0.0257 371.116 FLOW
DISCHARGE_6036 -0.0258 371.116 FLOW
DISCHARGE_6125 -0.0258 371.116 FLOW
DISCHARGE_6215 -0.0258 371.116 FLOW
DISCHARGE_6307 -0.0258 371.116 FLOW
DISCHARGE_6401 -0.0258 371.116 FLOW
DISCHARGE_6496 -0.0257 371.116 FLOW
DISCHARGE_6592 -0.0258 371.116 FLOW
DISCHARGE_6689 -0.0258 371.116 FLOW
DISCHARGE_6789 -0.0258 371.116 FLOW
DISCHARGE_6889 -0.0258 371.116 FLOW
DISCHARGE_6991 -0.0259 371.116 FLOW
DISCHARGE_7095 -0.0258 371.116 FLOW
DISCHARGE_7200 -0.0259 371.116 FLOW
HEAT_0000 9.08 1.52 HEAT
HEAT_0001 9.08 1.52 HEAT
HEAT_0002 9.07 1.52 HEAT
HEAT_0004 9.07 1.52 HEAT
HEAT_0006 9.08 1.52 HEAT
HEAT_0008 9.08 1.52 HEAT
HEAT_0011 9.08 1.52 HEAT
HEAT_0015 9.09 1.52 HEAT
HEAT_0020 9.08 1.52 HEAT
HEAT_0025 9.09 1.52 HEAT
HEAT_0033 9.07 1.52 HEAT
HEAT_0042 9.09 1.52 HEAT
HEAT_0053 9.10 1.52 HEAT
HEAT_0068 9.08 1.52 HEAT
HEAT_0085 9.08 1.52 HEAT
HEAT_0108 9.07 1.52 HEAT
HEAT_0136 9.07 1.52 HEAT
HEAT_0170 9.10 1.52 HEAT
HEAT_0214 9.08 1.52 HEAT
HEAT_0216 9.09 1.52 HEAT
HEAT_0218 9.10 1.52 HEAT
HEAT_0220 9.09 1.52 HEAT
HEAT_0222 9.09 1.52 HEAT
HEAT_0224 9.08 1.52 HEAT
HEAT_0226 9.08 1.52 HEAT
HEAT_0229 9.09 1.52 HEAT
HEAT_0231 9.10 1.52 HEAT
HEAT_0233 9.07 1.52 HEAT
HEAT_0235 9.09 1.52 HEAT
HEAT_0237 9.08 1.52 HEAT
HEAT_0240 9.09 1.52 HEAT
HEAT_0242 9.09 1.52 HEAT
HEAT_0245 9.08 1.52 HEAT
HEAT_0247 9.09 1.52 HEAT
HEAT_0249 9.09 1.52 HEAT
HEAT_0252 9.08 1.52 HEAT
HEAT_0255 9.09 1.52 HEAT
HEAT_0257 9.09 1.52 HEAT
HEAT_0260 9.09 1.52 HEAT
HEAT_0262 9.08 1.52 HEAT
HEAT_0265 9.09 1.52 HEAT
HEAT_0268 9.08 1.52 HEAT
HEAT_0271 9.10 1.52 HEAT
HEAT_0273 9.08 1.52 HEAT
HEAT_0276 9.08 1.52 HEAT
HEAT_0279 9.09 1.52 HEAT
HEAT_0282 9.09 1.52 HEAT
HEAT_0285 9.08 1.52 HEAT
HEAT_0288 9.09 1.52 HEAT
HEAT_0291 9.08 1.52 HEAT
HEAT_0294 9.08 1.52 HEAT
HEAT_0298 9.08 1.52 HEAT
HEAT_0301 9.07 1.52 HEAT
HEAT_0304 9.09 1.52 HEAT
HEAT_0307 9.09 1.52 HEAT
HEAT_0311 9.09 1.52 HEAT
HEAT_0314 9.09 1.52 HEAT
HEAT_0318 9.09 1.52 HEAT
HEAT_0321 9.08 1.52 HEAT
HEAT_0325 9.09 1.52 HEAT
HEAT_0328 9.09 1.52 HEAT
HEAT_0332 9.09 1.52 HEAT
HEAT_0336 9.08 1.52 HEAT
HEAT_0340 9.09 1.52 HEAT
HEAT_0344 9.08 1.52 HEAT
HEAT_0347 9.09 1.52 HEAT
HEAT_0351 9.10 1.52 HEAT
HEAT_0355 9.09 1.52 HEAT
HEAT_0360 9.10 1.52 HEAT
HEAT_0364 9.08 1.52 HEAT
HEAT_0368 9.08 1.52 HEAT
HEAT_0372 9.08 1.52 HEAT
HEAT_0377 9.07 1.52 HEAT
HEAT_0381 9.09 1.52 HEAT
HEAT_0385 9.08 1.52 HEAT
HEAT_0390 9.09 1.52 HEAT
HEAT_0395 9.07 1.52 HEAT
HEAT_0399 9.08 1.52 HEAT
HEAT_0404 9.06 1.52 HEAT
HEAT_0409 9.08 1.52 HEAT
HEAT_0414 9.08 1.52 HEAT
HEAT_0419 9.07 1.52 HEAT
HEAT_0424 9.08 1.52 HEAT
HEAT_0429 9.08 1.52 HEAT
HEAT_0434 9.09 1.52 HEAT
HEAT_0439 9.08 1.52 HEAT
HEAT_0445 9.08 1.52 HEAT
HEAT_0450 9.09 1.52 HEAT
HEAT_0456 9.08 1.52 HEAT
HEAT_0461 9.08 1.52 HEAT
HEAT_0467 9.09 1.52 HEAT
HEAT_0473 9.08 1.52 HEAT
HEAT_0479 9.08 1.52 HEAT
HEAT_0485 9.09 1.52 HEAT
HEAT_0491 9.07 1.52 HEAT
HEAT_0497 9.09 1.52 HEAT
HEAT_0503 9.07 1.52 HEAT
HEAT_0509 9.08 1.52 HEAT
HEAT_0516 9.07 1.52 HEAT
HEAT_0522 9.09 1.52 HEAT
HEAT_0529 9.08 1.52 HEAT
HEAT_0535 9.09 1.52 HEAT
HEAT_0542 9.07 1.52 HEAT
HEAT_0549 9.10 1.52 HEAT
HEAT_0556 9.08 1.52 HEAT
HEAT_0563 9.09 1.52 HEAT
HEAT_0570 9.08 1.52 HEAT
HEAT_0578 9.09 1.52 HEAT
HEAT_0585 9.07 1.52 HEAT
HEAT_0593 9.07 1.52 HEAT
HEAT_0600 9.07 1.52 HEAT
HEAT_0608 9.07 1.52 HEAT
HEAT_0616 9.08 1.52 HEAT
HEAT_0624 9.08 1.52 HEAT
HEAT_0632 9.08 1.52 HEAT
HEAT_0640 9.08 1.52 HEAT
HEAT_0649 9.09 1.52 HEAT
HEAT_0657 9.07 1.52 HEAT
HEAT_0666 9.08 1.52 HEAT
HEAT_0675 9.08 1.52 HEAT
HEAT_0684 9.09 1.52 HEAT
HEAT_0693 9.09 1.52 HEAT
HEAT_0702 9.08 1.52 HEAT
HEAT_0711 9.07 1.52 HEAT
HEAT_0720 9.09 1.52 HEAT
HEAT_0730 9.09 1.52 HEAT
HEAT_0740 9.08 1.52 HEAT
HEAT_0750 9.08 1.52 HEAT
HEAT_0760 9.08 1.52 HEAT
HEAT_0770 9.08 1.52 HEAT
HEAT_0780 9.08 1.52 HEAT
HEAT_0791 9.10 1.52 HEAT
HEAT_0801 9.08 1.52 HEAT
HEAT_0812 9.08 1.52 HEAT
HEAT_0823 9.08 1.52 HEAT
HEAT_0834 9.08 1.52 HEAT
HEAT_0845 9.08 1.52 HEAT
HEAT_0857 9.08 1.52 HEAT
HEAT_0868 9.08 1.52 HEAT
HEAT_0880 9.07 1.52 HEAT
HEAT_0892 9.09 1.52 HEAT
HEAT_0904 9.08 1.52 HEAT
HEAT_0917 9.08 1.52 HEAT
HEAT_0929 9.08 1.52 HEAT
HEAT_0942 9.06 1.52 HEAT
HEAT_0955 9.07 1.52 HEAT
HEAT_0968 9.08 1.52 HEAT
HEAT_0981 9.08 1.52 HEAT
HEAT_0994 9.09 1.52 HEAT
HEAT_1008 9.08 1.52 HEAT
HEAT_1022 9.08 1.52 HEAT
HEAT_1036 9.08 1.52 HEAT
HEAT_1050 9.10 1.52 HEAT
HEAT_1065 9.08 1.52 HEAT
HEAT_1080 9.08 1.52 HEAT
HEAT_1095 9.09 1.52 HEAT
HEAT_1110 9.07 1.52 HEAT
HEAT_1125 9.08 1.52 HEAT
HEAT_1141 9.08 1.52 HEAT
HEAT_1157 9.10 1.52 HEAT
HEAT_1173 9.09 1.52 HEAT
HEAT_1189 9.09 1.52 HEAT
HEAT_1206 9.12 1.52 HEAT
HEAT_1223 9.13 1.52 HEAT
HEAT_1240 9.15 1.52 HEAT
HEAT_1257 9.16 1.52 HEAT
HEAT_1275 9.21 1.52 HEAT
HEAT_1293 9.24 1.52 HEAT
HEAT_1311 9.29 1.52 HEAT
HEAT_1329 9.34 1.52 HEAT
HEAT_1348 9.37 1.52 HEAT
HEAT_1367 9.43 1.52 HEAT
HEAT_1386 9.52 1.52 HEAT
HEAT_1406 9.59 1.52 HEAT
HEAT_1426 9.66 1.52 HEAT
HEAT_1446 9.75 1.52 HEAT
HEAT_1466 9.84 1.52 HEAT
HEAT_1487 9.93 1.52 HEAT
HEAT_1508 10.05 1.52 HEAT
HEAT_1529 10.13 1.52 HEAT
HEAT_1551 10.22 1.52 HEAT
HEAT_1573 10.35 1.52 HEAT
HEAT_1595 10.47 1.52 HEAT
HEAT_1618 10.58 1.52 HEAT
HEAT_1641 10.69 1.52 HEAT
HEAT_1665 10.80 1.52 HEAT
HEAT_1688 10.90 1.52 HEAT
HEAT_1712 11.02 1.52 HEAT
HEAT_1737 11.12 1.52 HEAT
HEAT_1762 11.19 1.52 HEAT
HEAT_1787 11.25 1.52 HEAT
HEAT_1812 11.32 1.52 HEAT
HEAT_1838 11.38 1.52 HEAT
HEAT_1865 11.40 1.52 HEAT
HEAT_1891 11.43 1.52 HEAT
HEAT_1919 11.41 1.52 HEAT
HEAT_1946 11.41 1.52 HEAT
HEAT_1974 11.41 1.52 HEAT
HEAT_2003 11.39 1.52 HEAT
HEAT_2031 11.37 1.52 HEAT
HEAT_2061 11.35 1.52 HEAT
HEAT_2090 11.28 1.52 HEAT
HEAT_2120 11.27 1.52 HEAT
HEAT_2151 11.19 1.52 HEAT
HEAT_2182 11.16 1.52 HEAT
HEAT_2213 11.07 1.52 HEAT
HEAT_2245 11.01 1.52 HEAT
HEAT_2278 10.96 1.52 HEAT
HEAT_2311 10.90 1.52 HEAT
HEAT_2344 10.84 1.52 HEAT
HEAT_2378 10.77 1.52 HEAT
HEAT_2413 10.71 1.52 HEAT
HEAT_2447 10.66 1.52 HEAT
HEAT_2483 10.59 1.52 HEAT
HEAT_2519 10.54 1.52 HEAT
HEAT_2556 10.51 1.52 HEAT
HEAT_2593 10.45 1.52 HEAT
HEAT_2630 10.38 1.52 HEAT
HEAT_2668 10.36 1.52 HEAT
HEAT_2707 10.29 1.52 HEAT
HEAT_2747 10.25 1.52 HEAT
HEAT_2787 10.20 1.52 HEAT
HEAT_2827 10.16 1.52 HEAT
HEAT_2868 10.12 1.52 HEAT
HEAT_2910 10.09 1.52 HEAT
HEAT_2953 10.05 1.52 HEAT
HEAT_2996 10.03 1.52 HEAT
HEAT_3039 9.96 1.52 HEAT
HEAT_3084 9.95 1.52 HEAT
HEAT_3129 9.91 1.52 HEAT
HEAT_3174 9.89 1.52 HEAT
HEAT_3221 9.85 1.52 HEAT
HEAT_3268 9.83 1.52 HEAT
HEAT_3316 9.80 1.52 HEAT
HEAT_3364 9.76 1.52 HEAT
HEAT_3413 9.75 1.52 HEAT
HEAT_3463 9.72 1.52 HEAT
HEAT_3514 9.71 1.52 HEAT
HEAT_3566 9.70 1.52 HEAT
HEAT_3618 9.66 1.52 HEAT
HEAT_3671 9.65 1.52 HEAT
HEAT_3725 9.64 1.52 HEAT
HEAT_3779 9.59 1.52 HEAT
HEAT_3835 9.60 1.52 HEAT
HEAT_3891 9.57 1.52 HEAT
HEAT_3948 9.55 1.52 HEAT
HEAT_4006 9.53 1.52 HEAT
HEAT_4065 9.51 1.52 HEAT
HEAT_4125 9.50 1.52 HEAT
HEAT_4185 9.49 1.52 HEAT
HEAT_4247 9.48 1.52 HEAT
HEAT_4309 9.46 1.52 HEAT
HEAT_4373 9.43 1.52 HEAT
HEAT_4437 9.43 1.52 HEAT
HEAT_4502 9.42 1.52 HEAT
HEAT_4569 9.41 1.52 HEAT
HEAT_4636 9.40 1.52 HEAT
HEAT_4704 9.37 1.52 HEAT
HEAT_4774 9.36 1.52 HEAT
HEAT_4844 9.36 1.52 HEAT
HEAT_4915 9.36 1.52 HEAT
HEAT_4988 9.36 1.52 HEAT
HEAT_5062 9.36 1.52 HEAT
HEAT_5136 9.34 1.52 HEAT
HEAT_5212 9.34 1.52 HEAT
HEAT_5289 9.33 1.52 HEAT
HEAT_5367 9.32 1.52 HEAT
HEAT_5446 9.30 1.52 HEAT
HEAT_5527 9.29 1.52 HEAT
HEAT_5608 9.29 1.52 HEAT
HEAT_5691 9.29 1.52 HEAT
HEAT_5775 9.27 1.52 HEAT
HEAT_5861 9.27 1.52 HEAT
HEAT_5948 9.27 1.52 HEAT
HEAT_6036 9.26 1.52 HEAT
HEAT_6125 9.26 1.52 HEAT
HEAT_6215 9.25 1.52 HEAT
HEAT_6307 9.25 1.52 HEAT
HEAT_6401 9.24 1.52 HEAT
HEAT_6496 9.24 1.52 HEAT
HEAT_6592 9.23 1.52 HEAT
HEAT_6689 9.23 1.52 HEAT
HEAT_6789 9.22 1.52 HEAT
HEAT_6889 9.22 1.52 HEAT
HEAT_6991 9.22 1.52 HEAT
HEAT_7095 9.21 1.52 HEAT
HEAT_7200 9.21 1.52 HEAT
SOLUTE_0000 0.011684 6.393 SOLUTE
SOLUTE_0001 0.011963 6.393 SOLUTE
SOLUTE_0002 0.011963 6.393 SOLUTE
SOLUTE_0004 0.011963 6.393 SOLUTE
SOLUTE_0006 0.011684 6.393 SOLUTE
SOLUTE_0008 0.011684 6.393 SOLUTE
SOLUTE_0011 0.011684 6.393 SOLUTE
SOLUTE_0015 0.011684 6.393 SOLUTE
SOLUTE_0020 0.011684 6.393 SOLUTE
SOLUTE_0025 0.011684 6.393 SOLUTE
SOLUTE_0033 0.011963 6.393 SOLUTE
SOLUTE_0042 0.011684 6.393 SOLUTE
SOLUTE_0053 0.011684 6.393 SOLUTE
SOLUTE_0068 0.011963 6.393 SOLUTE
SOLUTE_0085 0.011684 6.393 SOLUTE
SOLUTE_0108 0.011963 6.393 SOLUTE
SOLUTE_0136 0.011963 6.393 SOLUTE
SOLUTE_0170 0.011684 6.393 SOLUTE
SOLUTE_0214 0.011684 6.393 SOLUTE
SOLUTE_0216 0.011684 6.393 SOLUTE
SOLUTE_0218 0.011684 6.393 SOLUTE
SOLUTE_0220 0.011684 6.393 SOLUTE
SOLUTE_0222 0.011684 6.393 SOLUTE
SOLUTE_0224 0.011963 6.393 SOLUTE
SOLUTE_0226 0.011684 6.393 SOLUTE
SOLUTE_0229 0.011684 6.393 SOLUTE
SOLUTE_0231 0.011684 6.393 SOLUTE
SOLUTE_0233 0.011963 6.393 SOLUTE
SOLUTE_0235 0.011684 6.393 SOLUTE
SOLUTE_0237 0.011963 6.393 SOLUTE
SOLUTE_0240 0.011684 6.393 SOLUTE
SOLUTE_0242 0.011684 6.393 SOLUTE
SOLUTE_0245 0.011684 6.393 SOLUTE
SOLUTE_0247 0.011684 6.393 SOLUTE
SOLUTE_0249 0.011684 6.393 SOLUTE
SOLUTE_0252 0.011963 6.393 SOLUTE
SOLUTE_0255 0.011684 6.393 SOLUTE
SOLUTE_0257 0.011684 6.393 SOLUTE
SOLUTE_0260 0.011684 6.393 SOLUTE
SOLUTE_0262 0.011963 6.393 SOLUTE
SOLUTE_0265 0.011684 6.393 SOLUTE
SOLUTE_0268 0.011963 6.393 SOLUTE
SOLUTE_0271 0.011684 6.393 SOLUTE
SOLUTE_0273 0.011684 6.393 SOLUTE
SOLUTE_0276 0.011684 6.393 SOLUTE
SOLUTE_0279 0.011684 6.393 SOLUTE
SOLUTE_0282 0.011684 6.393 SOLUTE
SOLUTE_0285 0.011963 6.393 SOLUTE
SOLUTE_0288 0.011684 6.393 SOLUTE
SOLUTE_0291 0.011684 6.393 SOLUTE
SOLUTE_0294 0.011684 6.393 SOLUTE
SOLUTE_0298 0.011963 6.393 SOLUTE
SOLUTE_0301 0.011963 6.393 SOLUTE
SOLUTE_0304 0.011684 6.393 SOLUTE
SOLUTE_0307 0.011684 6.393 SOLUTE
SOLUTE_0311 0.011684 6.393 SOLUTE
SOLUTE_0314 0.011684 6.393 SOLUTE
SOLUTE_0318 0.011684 6.393 SOLUTE
SOLUTE_0321 0.011963 6.393 SOLUTE
SOLUTE_0325 0.011684 6.393 SOLUTE
SOLUTE_0328 0.011684 6.393 SOLUTE
SOLUTE_0332 0.011684 6.393 SOLUTE
SOLUTE_0336 0.011684 6.393 SOLUTE
SOLUTE_0340 0.011684 6.393 SOLUTE
SOLUTE_0344 0.011684 6.393 SOLUTE
SOLUTE_0347 0.011684 6.393 SOLUTE
SOLUTE_0351 0.011684 6.393 SOLUTE
SOLUTE_0355 0.011684 6.393 SOLUTE
SOLUTE_0360 0.011684 6.393 SOLUTE
SOLUTE_0364 0.011963 6.393 SOLUTE
SOLUTE_0368 0.011963 6.393 SOLUTE
SOLUTE_0372 0.011963 6.393 SOLUTE
SOLUTE_0377 0.011963 6.393 SOLUTE
SOLUTE_0381 0.011684 6.393 SOLUTE
SOLUTE_0385 0.011963 6.393 SOLUTE
SOLUTE_0390 0.011684 6.393 SOLUTE
SOLUTE_0395 0.011963 6.393 SOLUTE
SOLUTE_0399 0.011963 6.393 SOLUTE
SOLUTE_0404 0.011963 6.393 SOLUTE
SOLUTE_0409 0.011684 6.393 SOLUTE
SOLUTE_0414 0.011963 6.393 SOLUTE
SOLUTE_0419 0.011963 6.393 SOLUTE
SOLUTE_0424 0.011684 6.393 SOLUTE
SOLUTE_0429 0.011963 6.393 SOLUTE
SOLUTE_0434 0.011684 6.393 SOLUTE
SOLUTE_0439 0.011684 6.393 SOLUTE
SOLUTE_0445 0.011684 6.393 SOLUTE
SOLUTE_0450 0.011684 6.393 SOLUTE
SOLUTE_0456 0.011684 6.393 SOLUTE
SOLUTE_0461 0.011963 6.393 SOLUTE
SOLUTE_0467 0.011684 6.393 SOLUTE
SOLUTE_0473 0.011963 6.393 SOLUTE
SOLUTE_0479 0.011963 6.393 SOLUTE
SOLUTE_0485 0.011684 6.393 SOLUTE
SOLUTE_0491 0.011963 6.393 SOLUTE
SOLUTE_0497 0.011684 6.393 SOLUTE
SOLUTE_0503 0.011963 6.393 SOLUTE
SOLUTE_0509 0.011963 6.393 SOLUTE
SOLUTE_0516 0.011963 6.393 SOLUTE
SOLUTE_0522 0.011684 6.393 SOLUTE
SOLUTE_0529 0.011684 6.393 SOLUTE
SOLUTE_0535 0.011684 6.393 SOLUTE
SOLUTE_0542 0.011963 6.393 SOLUTE
SOLUTE_0549 0.011684 6.393 SOLUTE
SOLUTE_0556 0.011684 6.393 SOLUTE
SOLUTE_0563 0.011684 6.393 SOLUTE
SOLUTE_0570 0.011963 6.393 SOLUTE
SOLUTE_0578 0.011684 6.393 SOLUTE
SOLUTE_0585 0.011963 6.393 SOLUTE
SOLUTE_0593 0.011963 6.393 SOLUTE
SOLUTE_0600 0.011963 6.393 SOLUTE
SOLUTE_0608 0.011963 6.393 SOLUTE
SOLUTE_0616 0.011963 6.393 SOLUTE
SOLUTE_0624 0.011963 6.393 SOLUTE
SOLUTE_0632 0.011684 6.393 SOLUTE
SOLUTE_0640 0.011963 6.393 SOLUTE
SOLUTE_0649 0.011684 6.393 SOLUTE
SOLUTE_0657 0.011963 6.393 SOLUTE
SOLUTE_0666 0.011684 6.393 SOLUTE
SOLUTE_0675 0.011963 6.393 SOLUTE
SOLUTE_0684 0.011684 6.393 SOLUTE
SOLUTE_0693 0.011684 6.393 SOLUTE
SOLUTE_0702 0.011684 6.393 SOLUTE
SOLUTE_0711 0.011963 6.393 SOLUTE
SOLUTE_0720 0.011684 6.393 SOLUTE
SOLUTE_0730 0.011684 6.393 SOLUTE
SOLUTE_0740 0.011684 6.393 SOLUTE
SOLUTE_0750 0.011684 6.393 SOLUTE
SOLUTE_0760 0.011684 6.393 SOLUTE
SOLUTE_0770 0.011684 6.393 SOLUTE
SOLUTE_0780 0.011963 6.393 SOLUTE
SOLUTE_0791 0.011684 6.393 SOLUTE
SOLUTE_0801 0.011684 6.393 SOLUTE
SOLUTE_0812 0.011963 6.393 SOLUTE
SOLUTE_0823 0.011684 6.393 SOLUTE
SOLUTE_0834 0.011963 6.393 SOLUTE
SOLUTE_0845 0.011963 6.393 SOLUTE
SOLUTE_0857 0.011963 6.393 SOLUTE
SOLUTE_0868 0.011963 6.393 SOLUTE
SOLUTE_0880 0.011963 6.393 SOLUTE
SOLUTE_0892 0.011684 6.393 SOLUTE
SOLUTE_0904 0.011684 6.393 SOLUTE
SOLUTE_0917 0.011684 6.393 SOLUTE
SOLUTE_0929 0.011684 6.393 SOLUTE
SOLUTE_0942 0.011963 6.393 SOLUTE
SOLUTE_0955 0.011963 6.393 SOLUTE
SOLUTE_0968 0.011684 6.393 SOLUTE
SOLUTE_0981 0.011963 6.393 SOLUTE
SOLUTE_0994 0.011684 6.393 SOLUTE
SOLUTE_1008 0.011963 6.393 SOLUTE
SOLUTE_1022 0.011963 6.393 SOLUTE
SOLUTE_1036 0.011963 6.393 SOLUTE
SOLUTE_1050 0.011824 6.393 SOLUTE
SOLUTE_1065 0.011963 6.393 SOLUTE
SOLUTE_1080 0.012520 6.393 SOLUTE
SOLUTE_1095 0.012520 6.393 SOLUTE
SOLUTE_1110 0.014471 6.393 SOLUTE
SOLUTE_1125 0.018093 6.393 SOLUTE
SOLUTE_1141 0.023109 6.393 SOLUTE
SOLUTE_1157 0.030912 6.393 SOLUTE
SOLUTE_1173 0.044287 6.393 SOLUTE
SOLUTE_1189 0.057105 6.393 SOLUTE
SOLUTE_1206 0.073825 6.393 SOLUTE
SOLUTE_1223 0.093331 6.393 SOLUTE
SOLUTE_1240 0.116180 6.393 SOLUTE
SOLUTE_1257 0.140981 6.393 SOLUTE
SOLUTE_1275 0.170518 6.393 SOLUTE
SOLUTE_1293 0.197548 6.393 SOLUTE
SOLUTE_1311 0.227086 6.393 SOLUTE
SOLUTE_1329 0.256345 6.393 SOLUTE
SOLUTE_1348 0.286718 6.393 SOLUTE
SOLUTE_1367 0.316256 6.393 SOLUTE
SOLUTE_1386 0.345515 6.393 SOLUTE
SOLUTE_1406 0.374774 6.393 SOLUTE
SOLUTE_1426 0.403754 6.393 SOLUTE
SOLUTE_1446 0.431341 6.393 SOLUTE
SOLUTE_1466 0.459764 6.393 SOLUTE
SOLUTE_1487 0.485400 6.393 SOLUTE
SOLUTE_1508 0.510201 6.393 SOLUTE
SOLUTE_1529 0.532493 6.393 SOLUTE
SOLUTE_1551 0.556179 6.393 SOLUTE
SOLUTE_1573 0.575685 6.393 SOLUTE
SOLUTE_1595 0.592126 6.393 SOLUTE
SOLUTE_1618 0.608288 6.393 SOLUTE
SOLUTE_1641 0.619713 6.393 SOLUTE
SOLUTE_1665 0.627515 6.393 SOLUTE
SOLUTE_1688 0.628351 6.393 SOLUTE
SOLUTE_1712 0.625564 6.393 SOLUTE
SOLUTE_1737 0.618877 6.393 SOLUTE
SOLUTE_1762 0.606337 6.393 SOLUTE
SOLUTE_1787 0.591568 6.393 SOLUTE
SOLUTE_1812 0.572898 6.393 SOLUTE
SOLUTE_1838 0.550885 6.393 SOLUTE
SOLUTE_1865 0.526363 6.393 SOLUTE
SOLUTE_1891 0.501005 6.393 SOLUTE
SOLUTE_1919 0.474811 6.393 SOLUTE
SOLUTE_1946 0.446667 6.393 SOLUTE
SOLUTE_1974 0.418523 6.393 SOLUTE
SOLUTE_2003 0.389542 6.393 SOLUTE
SOLUTE_2031 0.363627 6.393 SOLUTE
SOLUTE_2061 0.338270 6.393 SOLUTE
SOLUTE_2090 0.315699 6.393 SOLUTE
SOLUTE_2120 0.293685 6.393 SOLUTE
SOLUTE_2151 0.274179 6.393 SOLUTE
SOLUTE_2182 0.254673 6.393 SOLUTE
SOLUTE_2213 0.238789 6.393 SOLUTE
SOLUTE_2245 0.223185 6.393 SOLUTE
SOLUTE_2278 0.207580 6.393 SOLUTE
SOLUTE_2311 0.195040 6.393 SOLUTE
SOLUTE_2344 0.183058 6.393 SOLUTE
SOLUTE_2378 0.171912 6.393 SOLUTE
SOLUTE_2413 0.161880 6.393 SOLUTE
SOLUTE_2447 0.153242 6.393 SOLUTE
SOLUTE_2483 0.145161 6.393 SOLUTE
SOLUTE_2519 0.137637 6.393 SOLUTE
SOLUTE_2556 0.129835 6.393 SOLUTE
SOLUTE_2593 0.122868 6.393 SOLUTE
SOLUTE_2630 0.116738 6.393 SOLUTE
SOLUTE_2668 0.110607 6.393 SOLUTE
SOLUTE_2707 0.105592 6.393 SOLUTE
SOLUTE_2747 0.099740 6.393 SOLUTE
SOLUTE_2787 0.095003 6.393 SOLUTE
SOLUTE_2827 0.090265 6.393 SOLUTE
SOLUTE_2868 0.086086 6.393 SOLUTE
SOLUTE_2910 0.081627 6.393 SOLUTE
SOLUTE_2953 0.077726 6.393 SOLUTE
SOLUTE_2996 0.073825 6.393 SOLUTE
SOLUTE_3039 0.070481 6.393 SOLUTE
SOLUTE_3084 0.066580 6.393 SOLUTE
SOLUTE_3129 0.063514 6.393 SOLUTE
SOLUTE_3174 0.059892 6.393 SOLUTE
SOLUTE_3221 0.056548 6.393 SOLUTE
SOLUTE_3268 0.053483 6.393 SOLUTE
SOLUTE_3316 0.050696 6.393 SOLUTE
SOLUTE_3364 0.047910 6.393 SOLUTE
SOLUTE_3413 0.045402 6.393 SOLUTE
SOLUTE_3463 0.042894 6.393 SOLUTE
SOLUTE_3514 0.040943 6.393 SOLUTE
SOLUTE_3566 0.038714 6.393 SOLUTE
SOLUTE_3618 0.037042 6.393 SOLUTE
SOLUTE_3671 0.035091 6.393 SOLUTE
SOLUTE_3725 0.033420 6.393 SOLUTE
SOLUTE_3779 0.032305 6.393 SOLUTE
SOLUTE_3835 0.030633 6.393 SOLUTE