pcf
* control data
restart  estimation
208   1160    8     0     110
1    7    single    point    1    0    0
20    -3.0    0.30    0.03    -7  0 lamforgive derforgive win_mrun_hours=1.0 run_slow_fac=2.5 run_abandon_fac=4.0
2.0 2.0   0.001
0.1   
15   .005  4   4  .005   4
 1    1    1  JCOSAVEITN REISAVEITN PARSAVEITN RRFSAVE
* singular value decomposition
1
207  5.0E-7
0
* parameter groups
particle     relative    0.01     0.000      switch      2.000      parabolic
hydrodynam   relative    0.01     0.000      switch      2.000      parabolic
bed_seds     relative    0.01     0.000      switch      2.000      parabolic
geochem	     relative    0.01     0.000      switch      2.000      parabolic
methint	     relative    0.01     0.000      switch      2.000      parabolic
vs_flow      relative    0.001    0.000      switch      2.000      parabolic
macrophyte   relative    0.01     0.000      switch      2.000      parabolic
sediment     relative    0.01     0.000      switch      2.000      parabolic
* parameter data
m_vsettle0      log        factor     1.0000000E+00            0.2               2         particle       1  0  1            
m_vsettle1      log        factor     1.8000000E+00           0.36             7.2         particle       1  0  1    		
m_vsettle2      log        factor     1.0000000E+00            0.2               3         particle       1  0  1    		
m_vsettle3      log        factor     3.0000000E+00            0.6              15         particle       1  0  1    		
m_vresusp0_1    log        factor     1.0000000E+00            0.3               3         particle       1  0  1    		
m_vresusp0_2    log        factor     1.0000000E-02          0.003             0.5         particle       1  0  1    		
m_vresusp1_1    log        factor     1.0000000E+00            0.3               3         particle       1  0  1    		
m_vresusp1_2    log        factor     1.0000000E-02          0.003             0.5         particle       1  0  1    		
m_vresusp2_1    log        factor     1.0000000E+00            0.3               3         hydrodynam     1  0  1    		
m_vresusp2_2    log        factor     1.0000000E-02          0.003             0.5         hydrodynam     1  0  1    		
m_vresusp3_1    log        factor     1.4000000E+01            4.2              42         hydrodynam     1  0  1    		
m_vresusp3_2    log        factor     1.5000000E+01            4.5              45         hydrodynam     1  0  1    		
m_vresusp3_3    log        factor     1.4000000E-01          0.042               7         hydrodynam     1  0  1    		
m_vresusp3_4    log        factor     1.3000000E+01            3.9              39         hydrodynam     1  0  1    		
m_inflowss1     log        factor     1.0000000E+00           0.98            1.02         hydrodynam     1  0  1    		
m_inflowss4     log        factor     1.0000000E+00           0.98            1.02         hydrodynam     1  0  1    		
m_inflowss7     log        factor     1.0000000E+00           0.98            1.02         hydrodynam     1  0  1    		
m_inflowss9     log        factor     1.0000000E+00           0.98            1.02         hydrodynam     1  0  1    		
m_inflss11      log        factor     1.0000000E+00           0.98            1.02         hydrodynam     1  0  1    		
m_inflowss15    log        factor     1.0000000E+00           0.98            1.02         hydrodynam     1  0  1    		
m_inflowss43    log        factor     1.0000000E+00           0.98            1.02         hydrodynam     1  0  1    		
m_inflowss45    log        factor     1.0000000E+00           0.98            1.02         hydrodynam     1  0  1    		
s_porosity1     log        factor     8.9400000E-01         0.7599         0.92976         bed_seds       1  0  1    		
s_porosity2     log        factor     8.9400000E-01         0.7599         0.92976         bed_seds       1  0  1    		
m_mfrac0fal1    log        factor     3.5000000E-02         0.0175            0.07         geochem        1  0  1    		
m_mfrac0fal2    log        factor     3.5000000E-02         0.0175            0.07         geochem        1  0  1    		
m_mfrac1fal1    log        factor     3.5000000E-02         0.0175            0.07         geochem        1  0  1    		
m_mfrac1fal2    log        factor     3.5000000E-02         0.0175            0.07         geochem        1  0  1    		
m_mfrac2fal1    log        factor     8.1100000E-01         0.4055           1.622         geochem        1  0  1    		
m_mfrac2fal2    log        factor     8.1100000E-01         0.4055           1.622         geochem        1  0  1    		
m_mfrac3fal1    log        factor     1.1900000E-01         0.0595           0.238         geochem        1  0  1    		
m_mfrac3fal2    log        factor     1.1900000E-01         0.0595           0.238         geochem        1  0  1    		
m_mfrac0mix1    log        factor     3.0000000E-02          0.015            0.06         geochem        1  0  1    		
m_mfrac0mix2    log        factor     3.0000000E-02          0.015            0.06         geochem        1  0  1    		
m_mfrac1mix1    log        factor     3.0000000E-02          0.015            0.06         geochem        1  0  1    		
m_mfrac1mix2    log        factor     3.0000000E-02          0.015            0.06         geochem        1  0  1    		
m_mfrac2mix1    log        factor     7.2400000E-01          0.362           1.448         geochem        1  0  1    		
m_mfrac2mix2    log        factor     7.2400000E-01          0.362           1.448         geochem        1  0  1    		
m_mfrac3mix1    log        factor     2.1600000E-01          0.108           0.432         geochem        1  0  1    		
m_mfrac3mix2    log        factor     2.1600000E-01          0.108           0.432         geochem        1  0  1    		
m_mfrac0pas1    log        factor     5.5000000E-02         0.0275            0.11         geochem        1  0  1    		
m_mfrac0pas2    log        factor     5.5000000E-02         0.0275            0.11         geochem        1  0  1    		
m_mfrac1pas1    log        factor     2.5000000E-01          0.125             0.5         geochem        1  0  1    		
m_mfrac1pas2    log        factor     2.5000000E-01          0.125             0.5         geochem        1  0  1    		
m_mfrac2pas1    log        factor     3.7000000E-01          0.185            0.74         geochem        1  0  1    		
m_mfrac2pas2    log        factor     3.7000000E-01          0.185            0.74         geochem        1  0  1    		
m_mfrac3pas1    log        factor     3.2500000E-01         0.1625            0.65         geochem        1  0  1    		
m_mfrac3pas2    log        factor     3.2500000E-01         0.1625            0.65         geochem        1  0  1    		
m_mfrac0tid1    log        factor     5.0000000E-02          0.025             0.1         geochem        1  0  1    		
m_mfrac0tid2    log        factor     5.0000000E-02          0.025             0.1         geochem        1  0  1    		
m_mfrac1tid1    log        factor     5.0000000E-02          0.025             0.1         geochem        1  0  1    		
m_mfrac1tid2    log        factor     5.0000000E-02          0.025             0.1         geochem        1  0  1    		
m_mfrac2tid1    log        factor     7.3700000E-01         0.3685           1.474         geochem        1  0  1    		
m_mfrac2tid2    log        factor     7.3700000E-01         0.3685           1.474         geochem        1  0  1    		
m_mfrac3tid1    log        factor     1.6300000E-01         0.0815           0.326         geochem        1  0  1    		
m_mfrac3tid2    log        factor     1.6300000E-01         0.0815           0.326         geochem        1  0  1    		
m_mfrac0wat1    log        factor     4.0000000E-02           0.02            0.08         geochem        1  0  1    		
m_mfrac0wat2    log        factor     4.0000000E-02           0.02            0.08         geochem        1  0  1    		
m_mfrac1wat1    log        factor     4.0000000E-02           0.02            0.08         geochem        1  0  1    		
m_mfrac1wat2    log        factor     4.0000000E-02           0.02            0.08         geochem        1  0  1    		
m_mfrac2wat1    log        factor     7.5100000E-01         0.3755           1.502         geochem        1  0  1    		
m_mfrac2wat2    log        factor     7.5100000E-01         0.3755           1.502         geochem        1  0  1    		
m_mfrac3wat1    log        factor     1.6900000E-01         0.0845           0.338         geochem        1  0  1    		
m_mfrac3wat2    log        factor     1.6900000E-01         0.0845           0.338         geochem        1  0  1    		
m_mfrac0wet1    log        factor     7.0000000E-02          0.035            0.14         geochem        1  0  1    		
m_mfrac0wet2    log        factor     7.0000000E-02          0.035            0.14         geochem        1  0  1    		
m_mfrac1wet1    log        factor     7.0000000E-02          0.035            0.14         geochem        1  0  1    		
m_mfrac1wet2    log        factor     7.0000000E-02          0.035            0.14         geochem        1  0  1    		
m_mfrac2wet1    log        factor     7.0400000E-01          0.352           1.408         geochem        1  0  1    		
m_mfrac2wet2    log        factor     7.0400000E-01          0.352           1.408         geochem        1  0  1    		
m_mfrac3wet1    log        factor     1.5600000E-01          0.078           0.312         geochem        1  0  1    		
m_mfrac3wet2    log        factor     1.5600000E-01          0.078           0.312         geochem        1  0  1    		
m_mfrac0whr1    log        factor     4.0000000E-02           0.02            0.08         geochem        1  0  1    		
m_mfrac0whr2    log        factor     4.0000000E-02           0.02            0.08         geochem        1  0  1    		
m_mfrac1whr1    log        factor     2.5000000E-01          0.125             0.5         geochem        1  0  1    		
m_mfrac1whr2    log        factor     2.5000000E-01          0.125             0.5         geochem        1  0  1    		
m_mfrac2whr1    log        factor     6.1300000E-01         0.3065           1.226         geochem        1  0  1    		
m_mfrac2whr2    log        factor     6.1300000E-01         0.3065           1.226         geochem        1  0  1    		
m_mfrac3whr1    log        factor     9.7000000E-02         0.0485           0.194         geochem        1  0  1    		
m_mfrac3whr2    log        factor     9.7000000E-02         0.0485           0.194         geochem        1  0  1    		
m_mfrac0wir1    log        factor     4.0000000E-02           0.02            0.08         geochem        1  0  1    		
m_mfrac0wir2    log        factor     4.0000000E-02           0.02            0.08         geochem        1  0  1    		
m_mfrac1wir1    log        factor     2.5000000E-01          0.125             0.5         geochem        1  0  1    		
m_mfrac1wir2    log        factor     2.5000000E-01          0.125             0.5         geochem        1  0  1    		
m_mfrac2wir1    log        factor     6.6600000E-01          0.333           1.332         geochem        1  0  1    		
m_mfrac2wir2    log        factor     6.6600000E-01          0.333           1.332         geochem        1  0  1    		
m_mfrac3wir1    log        factor     4.4000000E-02          0.022           0.088         geochem        1  0  1    		
m_mfrac3wir2    log        factor     4.4000000E-02          0.022           0.088         geochem        1  0  1    		
s_dens0         log        factor     1.5000000E+00            1.2             1.8         bed_seds       1  0  1    		
s_dens1         log        factor     1.5000000E+00            1.2            1.65         bed_seds       1  0  1    		
s_dens2         log        factor     2.2000000E+00           1.76            2.64         bed_seds       1  0  1    		
s_dens3         log        factor     2.6000000E+00           2.08            2.86         bed_seds       1  0  1    		
vs_flow         log        factor     1.0000000E+00           0.99            1.01         vs_flow        1  0  1    		
m_precip        log        factor     1.0000000E+00           0.75             1.5         hydrodynam     1  0  1    		
m_mehg1         log        factor     1.000000e+000           0.80             1.2         geochem        1  0  1    		
m_mehg4         log        factor     1.0000000E+00            0.3               3         geochem        1  0  1    		
m_mehg7         log        factor     1.0000000E+00            0.3               3         geochem        1  0  1    		
m_mehg9         log        factor     1.0000000E+00            0.3               3         geochem        1  0  1    		
m_mehg11        log        factor     1.0000000E+00            0.3               3         geochem        1  0  1    		
m_mehg15        log        factor     1.0000000E+00            0.3             1.5         geochem        1  0  1    		
m_mehg43        log        factor     1.0000000E+00            0.3               3         geochem        1  0  1    		
m_mehg45        log        factor     1.0000000E+00            0.3               3         geochem        1  0  1    		
m_hgiif1        log        factor     1.0000000E+00           0.80             1.2         geochem        1  0  1    		
m_hgiip1        log        factor     1.0000000E+00           0.80             1.2         geochem        1  0  1    		
m_hgiif4        log        factor     1.0000000E+00            0.3               3         geochem        1  0  1    		
m_hgiip4        log        factor     1.0000000E+00            0.3               3         geochem        1  0  1    		
m_hgiif7        log        factor     1.0000000E+00            0.3               3         geochem        1  0  1    		
m_hgiip7        log        factor     1.0000000E+00            0.3               3         geochem        1  0  1    		
m_hgiif9        log        factor     1.0000000E+00            0.3               3         geochem        1  0  1    		
m_hgiip9        log        factor     1.0000000E+00            0.3               3         geochem        1  0  1    		
m_hgiif11       log        factor     1.0000000E+00            0.3               3         geochem        1  0  1    		
m_hgiip11       log        factor     1.0000000E+00            0.3               3         geochem        1  0  1    		
m_hgiif15       log        factor     1.0000000E+00            0.3               3         geochem        1  0  1    		
m_hgiip15       log        factor     1.0000000E+00            0.3               3         geochem        1  0  1    		
m_hgiif43       log        factor     1.0000000E+00            0.3               3         geochem        1  0  1    		
m_hgiip43       log        factor     1.0000000E+00            0.3               3         geochem        1  0  1    		
m_hgiif45       log        factor     1.0000000E+00            0.3               3         geochem        1  0  1    		
m_hgiip45       log        factor     1.0000000E+00            0.3               3         geochem        1  0  1    		
l_diffsedwat    log        factor     2.0000000E-03        0.00002            0.01         particle       1  0  1    		
s_temp          log        factor     1.0000000E+00            0.9             1.1         geochem        1  0  1    		
m_v_rgm         log        factor     8.6400000E+02            432            1728         geochem        1  0  1    		
m_p_ke_uva_1    log        factor     6.0000000E-01            0.3             1.2         geochem        1  0  1    		
m_p_ke_uvb_1    log        factor     1.3600000E+00           0.68            2.72         geochem        1  0  1    		
m_p_ke_par_1    log        factor     1.8400000E-01          0.092           0.368         geochem        1  0  1    		
photodeg_uva    log        factor     2.7330000E-04        8.2E-05        0.001367         geochem        1  0  1      		
photodeg_uvb    log        factor     2.5000000E-03        0.00075          0.0125         geochem        1  0  1    		
photodeg_pa     log        factor     1.1400000E-05       3.42E-06        0.000057         geochem        1  0  1      		
photored_uv3    log        factor     2.0000000E+07        2000000           2E+08         geochem        1  0  1      		
m_hgiiprecip    log        factor     1.0000000E+00            0.5               2         geochem        1  0  1    		
m_mehgprecip    log        factor     1.0000000E+00            0.3               3         geochem        1  0  1    		
m_q10meth       log        factor     2.2700000E+00         1.7025           3.405         geochem        1  0  1    		
m_q10demeth     log        factor     1.0000000E+00           0.75             1.5         geochem        1  0  1    		
l_methylsed1    log        factor     1.2000000E-02       1.00E-10            0.12         geochem        1  0  1    		
l_demethlow     log        factor     1.7000000E-02         0.0034            0.85         geochem        1  0  1    		
l_demethhi      log        factor     4.0000000E-02          0.008               2         geochem        1  0  1    		
l_methint       fixed      factor     0.0000000E+00              0        1.00E-09         methint        1  0  1    		
l_uso4l1        log        factor     1.6700000E+00          0.334            8.35         geochem        1  0  1    		
l_kso4l1        log        factor     4.8100000E+00          0.962           24.05         geochem        1  0  1    		
m_docwat        log        factor     4.0000000E-01            0.2               1         geochem        1  0  1    		
m_docsed1       log        factor     1.5000000E+00           0.75             4.5         geochem        1  0  1    		
s_ph_phwat      log        factor     1.0000000E+00           0.85            1.15         geochem        1  0  1    		
s_ph_phsed1     log        factor     1.0000000E+00           0.85            1.15         geochem        1  0  1    		
m_so4sed1       log        factor     4.0000000E+00              2               8         geochem        1  0  1    		
molxoh_0_wat    log        factor     1.0470000E-08       5.24E-09        2.09E-08         geochem        1  0  1      		
molxoh_1_wat    log        factor     1.0470000E-08       5.24E-09        2.09E-08         geochem        1  0  1      		
molxoh_0sed1    log        factor     1.0470000E-08       5.24E-09        2.09E-08         geochem        1  0  1      		
molxoh_0sed2    log        factor     1.0470000E-08       5.24E-09        2.09E-08         geochem        1  0  1      		
molxoh_1sed1    log        factor     1.0470000E-08       5.24E-09        2.09E-08         geochem        1  0  1      		
molxoh_1sed2    log        factor     1.0470000E-08       5.24E-09        2.09E-08         geochem        1  0  1      		
molxoh_2_wat    log        factor     5.2400000E-09       2.62E-09        1.05E-08         geochem        1  0  1      		
molxoh_2sed1    log        factor     5.2400000E-09       2.62E-09        1.05E-08         geochem        1  0  1      		
molxoh_2sed2    log        factor     5.2400000E-09       2.62E-09        1.05E-08         geochem        1  0  1      		
molxoh_3_wat    log        factor     1.0470000E-09       5.24E-10        2.09E-09         geochem        1  0  1      		
molxoh_3sed1    log        factor     1.0470000E-09       5.24E-10        2.09E-09         geochem        1  0  1      		
molxoh_3sed2    log        factor     1.0470000E-09       5.24E-10        2.09E-09         geochem        1  0  1      		
s_xohgwat       log        factor     1.8000000E+01           16.2            19.8         geochem        1  0  1    		
s_xohgsed1      log        factor     1.8000000E+01           16.2            19.8         geochem        1  0  1    		
s_xohgsed2      log        factor     1.8000000E+01           16.2            19.8         geochem        1  0  1    		
s_xomehgwat     log        factor     3.9000000E+00           3.51            4.29         geochem        1  0  1    		
s_xomehgsed1    log        factor     2.6000000E+00           2.34            2.86         geochem        1  0  1    		
s_xomehgsed2    log        factor     2.6000000E+00           2.34            2.86         geochem        1  0  1    		
SpasturAreaf    log        factor     9.5000000E-01            0.5               1         macrophyte     1  0  1    		
SpasturAtten    log        factor     5.0000000E-01           0.25               1         macrophyte     1  0  1    		
SpasturBiom     log        factor     1.0000000E+00            0.5             1.5         macrophyte     1  0  1    		
SpasturLAI      log        factor     1.0000000E+00            0.5               2         macrophyte     1  0  1    		
Spasturtrans    log        factor     1.0000000E+00            0.5               2         macrophyte     1  0  1    		
Mpasturrootr    log        factor     1.0000000E-01       1.00E-10             0.8         macrophyte     1  0  1    		
Spastursedf     log        factor     9.5000000E-01          0.475            0.95         macrophyte     1  0  1    		
SwhiteRAreaf    log        factor     9.5000000E-01            0.5               1         macrophyte     1  0  1    		
SwhiteRAtten    log        factor     5.0000000E-01           0.25               1         macrophyte     1  0  1    		
SwhiteRBiom     log        factor     1.0000000E+00            0.5             1.5         macrophyte     1  0  1    		
SwhiteRLAI      log        factor     1.0000000E+00            0.5               2         macrophyte     1  0  1    		
SwhiteRtrans    log        factor     1.0000000E+00            0.5               2         macrophyte     1  0  1    		
MwhiteRrootr    log        factor     1.0000000E-01       1.00E-10             0.8         macrophyte     1  0  1    		
SwhiteRsedfr    log        factor     9.5000000E-01          0.475            0.95         macrophyte     1  0  1    		
SwildrAreaf     log        factor     9.5000000E-01            0.5               1         macrophyte     1  0  1    		
SwildRAtten     log        factor     5.0000000E-01           0.25               1         macrophyte     1  0  1    		
SwildRBiom      log        factor     1.0000000E+00            0.5             1.5         macrophyte     1  0  1    		
SwildRLAI       log        factor     1.0000000E+00            0.5               2         macrophyte     1  0  1    		
SwildRtrans     log        factor     1.0000000E+00            0.5               2         macrophyte     1  0  1    		
MwildRrootr     log        factor     1.0000000E-01       1.00E-10             0.8         macrophyte     1  0  1    		
SwildRsedfr     log        factor     9.5000000E-01          0.475            0.95         macrophyte     1  0  1    		
SwetlndAreaf    log        factor     9.5000000E-01            0.5               1         macrophyte     1  0  1    		
SwetlndAtten    log        factor     5.0000000E-01           0.25               1         macrophyte     1  0  1    		
SwetlndBiom     log        factor     1.0000000E+00            0.5             1.5         macrophyte     1  0  1    		
SwetlndLAI      log        factor     1.0000000E+00            0.5               2         macrophyte     1  0  1    		
Swetlndtrans    log        factor     1.0000000E+00            0.5               2         macrophyte     1  0  1    		
Mwetlndrootr    log        factor     1.0000000E-01       1.00E-10             0.8         macrophyte     1  0  1    		
Swetlndsedfr    log        factor     9.5000000E-01          0.475            0.95         macrophyte     1  0  1    		
Mdecomporg      log        factor     2.4000000E-04       0.000072          0.0006         sediment       1  0  1      		
Mdecompveg      log        factor     2.0000000E-02          0.006            0.05         sediment       1  0  1    		
Spastr29Erod    log        factor     1.1671480E+07        5835740        17507220         sediment       1  0  1      		
Spastr30Erod    log        factor     1.2214030E+07        6107015        18321045         sediment       1  0  1      		
Spastr34Erod    log        factor     1.7375670E+07        8687835        26063505         sediment       1  0  1      		
Spastr39Erod    log        factor     9.4385230E+06        4719262        14157785         sediment       1  0  1      		
Spastr41Erod    log        factor     1.8856450E+07        9428225        28284675         sediment       1  0  1      		
SwhitR14Erod    log        factor     5.9592770E+06        2979639         8938916         sediment       1  0  1      		
SwhitR18Erod    log        factor     1.4698070E+07        7349035        22047105         sediment       1  0  1      		
SwhitR23Erod    log        factor     7.2369360E+06        3618468        10855404         sediment       1  0  1      		
SwhitR32Erod    log        factor     4.9635810E+06        2481791         7445372         sediment       1  0  1      		
SwildR19Erod    log        factor     7.7330480E+06        3866524        11599572         sediment       1  0  1      		
SwildR24Erod    log        factor     1.7456480E+06         872824         3491296         sediment       1  0  1    		
Swetld20Erod    log        factor     6.3798990E+06        3189950         9569849         sediment       1  0  1      		
Swetld25Erod    log        factor     6.3216010E+06        3160801         9482402         sediment       1  0  1      		
Swetld26Erod    log        factor     7.7172550E+06        3858628        11575883         sediment       1  0  1      		
Swetld28Erod    log        factor     1.2682970E+07        6341485        19024455         sediment       1  0  1      		
Swetld31Erod    log        factor     1.8282050E+07        9141025        27423075         sediment       1  0  1      		
Swetld33Erod    log        factor     5.6408520E+06        2820426         8461278         sediment       1  0  1      		
* observation groups
HgIIWatF23
HgIIWatF23D
HgIIWatF25
HgIIWatF25D
HgIIWatF43
HgIIWatF43D
HgIIWatU10
HgIIWatU10D
HgIIWatU11
HgIIWatU15
HgIIWatU23
HgIIWatU23D
HgIIWatU25
HgIIWatU25D
HgIIWatU26
HgIIWatU26D
HgIIWatU35
HgIIWatU35D
HgIIWatU36D
HgIIWatU38
HgIIWatU38D
HgIIWatU42
HgIIWatU42D
HgIIWatU43
HgIIWatU43D
HgIIWatU5
HgIIWatU5D
HgIIWatU7
HgIIWatU7D
HgIIWatU8
HgIIWatU8D
MeHgWatF23
MeHgWatF23D
MeHgWatF25
MeHgWatF25D
MeHgWatF43
MeHgWatF43D
MeHgWatU10
MeHgWatU10D
MeHgWatU11
MeHgWatU15
MeHgWatU23
MeHgWatU23D
MeHgWatU25
MeHgWatU25D
MeHgWatU26
MeHgWatU26D
MeHgWatU28
MeHgWatU28D
MeHgWatU35
MeHgWatU35D
MeHgWatU36
MeHgWatU36D
MeHgWatU42
MeHgWatU42D
MeHgWatU43
MeHgWatU43D
MeHgWatU7
MeHgWatU7D
MeHgWatU8
MeHgWatU8D
TSS1
TSS10
TSS10D
TSS11
TSS11D
TSS12
TSS12D
TSS15
TSS23
TSS23D
TSS25
TSS25D
TSS26
TSS34D
TSS35
TSS35D
TSS36D
TSS42
TSS42D
TSS43
TSS43D
TSS45
TSS5
TSS7
TSS7D
TSS8
TSS8D
TSS9
mehgsed13							       
mehgsed25							       
mehgsed35
mehgsed43
an_tot_mehgu
an_tot_mehgf
an_tot_hgiiu
an_tot_hgiif
an_tot_tss
an_avg_mehgu
an_avg_mehgf
an_avg_hgiiu
an_avg_hgiif
an_avg_tss
fremont_load
mehgsedful12
mehgsedful13
mehgsedful25
mehgsedful35
mehgsedful43
mehgsed10y25
* observation data
unfilmehg_avg_load              177000000       8E-08        fremont_load
mehgsed_full_C12                     0.24           1        mehgsedful12
mehgsed_full_C13                      1.2           1        mehgsedful13
mehgsed_full_C25                     1.13           1        mehgsedful25
mehgsed_full_C35                      1.1           1        mehgsedful35
mehgsed_full_C43                     1.19           1        mehgsedful43
mehgsed_10yr_C25                     0.96           1        mehgsed10y25
hgiiwatf23_1666                  4.928571           0        hgiiwatf23
hgiiwatf23_2960                    5.6625           0        hgiiwatf23
hgiiwatf23_3217                      1.65     0.11111        hgiiwatf23
hgiiwatf23_5394                      8.35           0        hgiiwatf23
hgiiwatf23_8084                       7.7           0        hgiiwatf23
hgiiwatf23_8759                  4.466667           0        hgiiwatf23
hgiiwatf23_9682                      2.05     0.11111        hgiiwatf23
hgiiwatf23_9807                       6.4           0        hgiiwatf23
hgiiwatf23_9887                    4.0625           0        hgiiwatf23
hgiiwatf23d_1497                     2.86           0        hgiiwatf23d
hgiiwatf23d_1656                      6.1           0        hgiiwatf23d
hgiiwatf23d_2239                     16.9           0        hgiiwatf23d
hgiiwatf23d_2872                 3.416667           0        hgiiwatf23d
hgiiwatf23d_3160                 2.266667           0        hgiiwatf23d
hgiiwatf23d_3872                     3.58           0        hgiiwatf23d
hgiiwatf23d_5033                     23.5           0        hgiiwatf23d
hgiiwatf23d_6330                    13.42           0        hgiiwatf23d
hgiiwatf23d_8161                    13.65           0        hgiiwatf23d
hgiiwatf23d_8364                     12.9           0        hgiiwatf23d
hgiiwatf23d_8417                     5.34           0        hgiiwatf23d
hgiiwatf23d_9555                      5.9           0        hgiiwatf23d
hgiiwatf25_1023                       1.9        0.25        hgiiwatf25
hgiiwatf25_1448                      1.65        0.25        hgiiwatf25
hgiiwatf25_1457                      3.64        0.25        hgiiwatf25
hgiiwatf25_6911                       1.4        0.25        hgiiwatf25
hgiiwatf25d_4624                      0.8           0        hgiiwatf25d
hgiiwatf25d_4647                      1.1           0        hgiiwatf25d
hgiiwatf25d_5703                      0.6           0        hgiiwatf25d
hgiiwatf25d_5947                      0.6           0        hgiiwatf25d
hgiiwatf25d_9104                     0.75           0        hgiiwatf25d